/*---------------------------------------------------------------------------*\
| =========                 |                                                 |
| \\      /  F ield         | OpenFOAM: The Open Source CFD Toolbox           |
|  \\    /   O peration     | Version:  2412                                  |
|   \\  /    A nd           | Website:  www.openfoam.com                      |
|    \\/     M anipulation  |                                                 |
\*---------------------------------------------------------------------------*/
Build  : _8dbc61e11c-20241220 OPENFOAM=2412 version=v2412
Arch   : "LSB;label=32;scalar=64"
Exec   : reconstructPar
Date   : May 30 2025
Time   : 09:16:28
Host   : WORKHORSE
PID    : 3661357
I/O    : uncollated
Case   : /home/adrian/OpenFOAM/adrian-v2412/run/bubble/mesh_80_Co_0.1
nProcs : 1
trapFpe: Floating point exception trapping enabled (FOAM_SIGFPE).
fileModificationChecking : Monitoring run-time modified files using timeStampMaster (fileModificationSkew 5, maxFileModificationPolls 20)
allowSystemOperations : Allowing user-supplied system call operations

// * * * * * * * * * * * * * * * * * * * * * * * * * * * * * * * * * * * * * //
Create time



Reconstructing fields
region=region0

Time = 0.05

Reconstructing FV fields

    Reconstructing volScalarFields

        alpha.water
        p
        p_rgh

    Reconstructing volVectorFields

        U
        U_0
        ddt0(rho,U)
        ddtCorrDdt0(U)

    Reconstructing surfaceScalarFields

        alphaPhi0.water
        ddtCorrDdt0(phi)
        phi
        phi_0

Reconstructing point fields

No point fields

No lagrangian fields

No FA fields

Time = 0.1

Reconstructing FV fields

    Reconstructing volScalarFields

        alpha.water
        p
        p_rgh

    Reconstructing volVectorFields

        U
        U_0
        ddt0(rho,U)
        ddtCorrDdt0(U)

    Reconstructing surfaceScalarFields

        alphaPhi0.water
        ddtCorrDdt0(phi)
        phi
        phi_0

Reconstructing point fields

No point fields

No lagrangian fields

No FA fields

Time = 0.15

Reconstructing FV fields

    Reconstructing volScalarFields

        alpha.water
        p
        p_rgh

    Reconstructing volVectorFields

        U
        U_0
        ddt0(rho,U)
        ddtCorrDdt0(U)

    Reconstructing surfaceScalarFields

        alphaPhi0.water
        ddtCorrDdt0(phi)
        phi
        phi_0

Reconstructing point fields

No point fields

No lagrangian fields

No FA fields

Time = 0.2

Reconstructing FV fields

    Reconstructing volScalarFields

        alpha.water
        p
        p_rgh

    Reconstructing volVectorFields

        U
        U_0
        ddt0(rho,U)
        ddtCorrDdt0(U)

    Reconstructing surfaceScalarFields

        alphaPhi0.water
        ddtCorrDdt0(phi)
        phi
        phi_0

Reconstructing point fields

No point fields

No lagrangian fields

No FA fields

Time = 0.25

Reconstructing FV fields

    Reconstructing volScalarFields

        alpha.water
        p
        p_rgh

    Reconstructing volVectorFields

        U
        U_0
        ddt0(rho,U)
        ddtCorrDdt0(U)

    Reconstructing surfaceScalarFields

        alphaPhi0.water
        ddtCorrDdt0(phi)
        phi
        phi_0

Reconstructing point fields

No point fields

No lagrangian fields

No FA fields

Time = 0.3

Reconstructing FV fields

    Reconstructing volScalarFields

        alpha.water
        p
        p_rgh

    Reconstructing volVectorFields

        U
        U_0
        ddt0(rho,U)
        ddtCorrDdt0(U)

    Reconstructing surfaceScalarFields

        alphaPhi0.water
        ddtCorrDdt0(phi)
        phi
        phi_0

Reconstructing point fields

No point fields

No lagrangian fields

No FA fields

Time = 0.35

Reconstructing FV fields

    Reconstructing volScalarFields

        alpha.water
        p
        p_rgh

    Reconstructing volVectorFields

        U
        U_0
        ddt0(rho,U)
        ddtCorrDdt0(U)

    Reconstructing surfaceScalarFields

        alphaPhi0.water
        ddtCorrDdt0(phi)
        phi
        phi_0

Reconstructing point fields

No point fields

No lagrangian fields

No FA fields

Time = 0.4

Reconstructing FV fields

    Reconstructing volScalarFields

        alpha.water
        p
        p_rgh

    Reconstructing volVectorFields

        U
        U_0
        ddt0(rho,U)
        ddtCorrDdt0(U)

    Reconstructing surfaceScalarFields

        alphaPhi0.water
        ddtCorrDdt0(phi)
        phi
        phi_0

Reconstructing point fields

No point fields

No lagrangian fields

No FA fields

Time = 0.45

Reconstructing FV fields

    Reconstructing volScalarFields

        alpha.water
        p
        p_rgh

    Reconstructing volVectorFields

        U
        U_0
        ddt0(rho,U)
        ddtCorrDdt0(U)

    Reconstructing surfaceScalarFields

        alphaPhi0.water
        ddtCorrDdt0(phi)
        phi
        phi_0

Reconstructing point fields

No point fields

No lagrangian fields

No FA fields

Time = 0.5

Reconstructing FV fields

    Reconstructing volScalarFields

        alpha.water
        p
        p_rgh

    Reconstructing volVectorFields

        U
        U_0
        ddt0(rho,U)
        ddtCorrDdt0(U)

    Reconstructing surfaceScalarFields

        alphaPhi0.water
        ddtCorrDdt0(phi)
        phi
        phi_0

Reconstructing point fields

No point fields

No lagrangian fields

No FA fields

Time = 0.55

Reconstructing FV fields

    Reconstructing volScalarFields

        alpha.water
        p
        p_rgh

    Reconstructing volVectorFields

        U
        U_0
        ddt0(rho,U)
        ddtCorrDdt0(U)

    Reconstructing surfaceScalarFields

        alphaPhi0.water
        ddtCorrDdt0(phi)
        phi
        phi_0

Reconstructing point fields

No point fields

No lagrangian fields

No FA fields

Time = 0.6

Reconstructing FV fields

    Reconstructing volScalarFields

        alpha.water
        p
        p_rgh

    Reconstructing volVectorFields

        U
        U_0
        ddt0(rho,U)
        ddtCorrDdt0(U)

    Reconstructing surfaceScalarFields

        alphaPhi0.water
        ddtCorrDdt0(phi)
        phi
        phi_0

Reconstructing point fields

No point fields

No lagrangian fields

No FA fields

Time = 0.65

Reconstructing FV fields

    Reconstructing volScalarFields

        alpha.water
        p
        p_rgh

    Reconstructing volVectorFields

        U
        U_0
        ddt0(rho,U)
        ddtCorrDdt0(U)

    Reconstructing surfaceScalarFields

        alphaPhi0.water
        ddtCorrDdt0(phi)
        phi
        phi_0

Reconstructing point fields

No point fields

No lagrangian fields

No FA fields

Time = 0.7

Reconstructing FV fields

    Reconstructing volScalarFields

        alpha.water
        p
        p_rgh

    Reconstructing volVectorFields

        U
        U_0
        ddt0(rho,U)
        ddtCorrDdt0(U)

    Reconstructing surfaceScalarFields

        alphaPhi0.water
        ddtCorrDdt0(phi)
        phi
        phi_0

Reconstructing point fields

No point fields

No lagrangian fields

No FA fields

Time = 0.75

Reconstructing FV fields

    Reconstructing volScalarFields

        alpha.water
        p
        p_rgh

    Reconstructing volVectorFields

        U
        U_0
        ddt0(rho,U)
        ddtCorrDdt0(U)

    Reconstructing surfaceScalarFields

        alphaPhi0.water
        ddtCorrDdt0(phi)
        phi
        phi_0

Reconstructing point fields

No point fields

No lagrangian fields

No FA fields

Time = 0.8

Reconstructing FV fields

    Reconstructing volScalarFields

        alpha.water
        p
        p_rgh

    Reconstructing volVectorFields

        U
        U_0
        ddt0(rho,U)
        ddtCorrDdt0(U)

    Reconstructing surfaceScalarFields

        alphaPhi0.water
        ddtCorrDdt0(phi)
        phi
        phi_0

Reconstructing point fields

No point fields

No lagrangian fields

No FA fields

Time = 0.85

Reconstructing FV fields

    Reconstructing volScalarFields

        alpha.water
        p
        p_rgh

    Reconstructing volVectorFields

        U
        U_0
        ddt0(rho,U)
        ddtCorrDdt0(U)

    Reconstructing surfaceScalarFields

        alphaPhi0.water
        ddtCorrDdt0(phi)
        phi
        phi_0

Reconstructing point fields

No point fields

No lagrangian fields

No FA fields

Time = 0.9

Reconstructing FV fields

    Reconstructing volScalarFields

        alpha.water
        p
        p_rgh

    Reconstructing volVectorFields

        U
        U_0
        ddt0(rho,U)
        ddtCorrDdt0(U)

    Reconstructing surfaceScalarFields

        alphaPhi0.water
        ddtCorrDdt0(phi)
        phi
        phi_0

Reconstructing point fields

No point fields

No lagrangian fields

No FA fields

Time = 0.95

Reconstructing FV fields

    Reconstructing volScalarFields

        alpha.water
        p
        p_rgh

    Reconstructing volVectorFields

        U
        U_0
        ddt0(rho,U)
        ddtCorrDdt0(U)

    Reconstructing surfaceScalarFields

        alphaPhi0.water
        ddtCorrDdt0(phi)
        phi
        phi_0

Reconstructing point fields

No point fields

No lagrangian fields

No FA fields

Time = 1

Reconstructing FV fields

    Reconstructing volScalarFields

        alpha.water
        p
        p_rgh

    Reconstructing volVectorFields

        U
        U_0
        ddt0(rho,U)
        ddtCorrDdt0(U)

    Reconstructing surfaceScalarFields

        alphaPhi0.water
        ddtCorrDdt0(phi)
        phi
        phi_0

Reconstructing point fields

No point fields

No lagrangian fields

No FA fields

Time = 1.05

Reconstructing FV fields

    Reconstructing volScalarFields

        alpha.water
        p
        p_rgh

    Reconstructing volVectorFields

        U
        U_0
        ddt0(rho,U)
        ddtCorrDdt0(U)

    Reconstructing surfaceScalarFields

        alphaPhi0.water
        ddtCorrDdt0(phi)
        phi
        phi_0

Reconstructing point fields

No point fields

No lagrangian fields

No FA fields

Time = 1.1

Reconstructing FV fields

    Reconstructing volScalarFields

        alpha.water
        p
        p_rgh

    Reconstructing volVectorFields

        U
        U_0
        ddt0(rho,U)
        ddtCorrDdt0(U)

    Reconstructing surfaceScalarFields

        alphaPhi0.water
        ddtCorrDdt0(phi)
        phi
        phi_0

Reconstructing point fields

No point fields

No lagrangian fields

No FA fields

Time = 1.15

Reconstructing FV fields

    Reconstructing volScalarFields

        alpha.water
        p
        p_rgh

    Reconstructing volVectorFields

        U
        U_0
        ddt0(rho,U)
        ddtCorrDdt0(U)

    Reconstructing surfaceScalarFields

        alphaPhi0.water
        ddtCorrDdt0(phi)
        phi
        phi_0

Reconstructing point fields

No point fields

No lagrangian fields

No FA fields

Time = 1.2

Reconstructing FV fields

    Reconstructing volScalarFields

        alpha.water
        p
        p_rgh

    Reconstructing volVectorFields

        U
        U_0
        ddt0(rho,U)
        ddtCorrDdt0(U)

    Reconstructing surfaceScalarFields

        alphaPhi0.water
        ddtCorrDdt0(phi)
        phi
        phi_0

Reconstructing point fields

No point fields

No lagrangian fields

No FA fields

Time = 1.25

Reconstructing FV fields

    Reconstructing volScalarFields

        alpha.water
        p
        p_rgh

    Reconstructing volVectorFields

        U
        U_0
        ddt0(rho,U)
        ddtCorrDdt0(U)

    Reconstructing surfaceScalarFields

        alphaPhi0.water
        ddtCorrDdt0(phi)
        phi
        phi_0

Reconstructing point fields

No point fields

No lagrangian fields

No FA fields

Time = 1.3

Reconstructing FV fields

    Reconstructing volScalarFields

        alpha.water
        p
        p_rgh

    Reconstructing volVectorFields

        U
        U_0
        ddt0(rho,U)
        ddtCorrDdt0(U)

    Reconstructing surfaceScalarFields

        alphaPhi0.water
        ddtCorrDdt0(phi)
        phi
        phi_0

Reconstructing point fields

No point fields

No lagrangian fields

No FA fields

Time = 1.35

Reconstructing FV fields

    Reconstructing volScalarFields

        alpha.water
        p
        p_rgh

    Reconstructing volVectorFields

        U
        U_0
        ddt0(rho,U)
        ddtCorrDdt0(U)

    Reconstructing surfaceScalarFields

        alphaPhi0.water
        ddtCorrDdt0(phi)
        phi
        phi_0

Reconstructing point fields

No point fields

No lagrangian fields

No FA fields

Time = 1.4

Reconstructing FV fields

    Reconstructing volScalarFields

        alpha.water
        p
        p_rgh

    Reconstructing volVectorFields

        U
        U_0
        ddt0(rho,U)
        ddtCorrDdt0(U)

    Reconstructing surfaceScalarFields

        alphaPhi0.water
        ddtCorrDdt0(phi)
        phi
        phi_0

Reconstructing point fields

No point fields

No lagrangian fields

No FA fields

Time = 1.45

Reconstructing FV fields

    Reconstructing volScalarFields

        alpha.water
        p
        p_rgh

    Reconstructing volVectorFields

        U
        U_0
        ddt0(rho,U)
        ddtCorrDdt0(U)

    Reconstructing surfaceScalarFields

        alphaPhi0.water
        ddtCorrDdt0(phi)
        phi
        phi_0

Reconstructing point fields

No point fields

No lagrangian fields

No FA fields

Time = 1.5

Reconstructing FV fields

    Reconstructing volScalarFields

        alpha.water
        p
        p_rgh

    Reconstructing volVectorFields

        U
        U_0
        ddt0(rho,U)
        ddtCorrDdt0(U)

    Reconstructing surfaceScalarFields

        alphaPhi0.water
        ddtCorrDdt0(phi)
        phi
        phi_0

Reconstructing point fields

No point fields

No lagrangian fields

No FA fields

Time = 1.55

Reconstructing FV fields

    Reconstructing volScalarFields

        alpha.water
        p
        p_rgh

    Reconstructing volVectorFields

        U
        U_0
        ddt0(rho,U)
        ddtCorrDdt0(U)

    Reconstructing surfaceScalarFields

        alphaPhi0.water
        ddtCorrDdt0(phi)
        phi
        phi_0

Reconstructing point fields

No point fields

No lagrangian fields

No FA fields

Time = 1.6

Reconstructing FV fields

    Reconstructing volScalarFields

        alpha.water
        p
        p_rgh

    Reconstructing volVectorFields

        U
        U_0
        ddt0(rho,U)
        ddtCorrDdt0(U)

    Reconstructing surfaceScalarFields

        alphaPhi0.water
        ddtCorrDdt0(phi)
        phi
        phi_0

Reconstructing point fields

No point fields

No lagrangian fields

No FA fields

Time = 1.65

Reconstructing FV fields

    Reconstructing volScalarFields

        alpha.water
        p
        p_rgh

    Reconstructing volVectorFields

        U
        U_0
        ddt0(rho,U)
        ddtCorrDdt0(U)

    Reconstructing surfaceScalarFields

        alphaPhi0.water
        ddtCorrDdt0(phi)
        phi
        phi_0

Reconstructing point fields

No point fields

No lagrangian fields

No FA fields

Time = 1.7

Reconstructing FV fields

    Reconstructing volScalarFields

        alpha.water
        p
        p_rgh

    Reconstructing volVectorFields

        U
        U_0
        ddt0(rho,U)
        ddtCorrDdt0(U)

    Reconstructing surfaceScalarFields

        alphaPhi0.water
        ddtCorrDdt0(phi)
        phi
        phi_0

Reconstructing point fields

No point fields

No lagrangian fields

No FA fields

Time = 1.75

Reconstructing FV fields

    Reconstructing volScalarFields

        alpha.water
        p
        p_rgh

    Reconstructing volVectorFields

        U
        U_0
        ddt0(rho,U)
        ddtCorrDdt0(U)

    Reconstructing surfaceScalarFields

        alphaPhi0.water
        ddtCorrDdt0(phi)
        phi
        phi_0

Reconstructing point fields

No point fields

No lagrangian fields

No FA fields

Time = 1.8

Reconstructing FV fields

    Reconstructing volScalarFields

        alpha.water
        p
        p_rgh

    Reconstructing volVectorFields

        U
        U_0
        ddt0(rho,U)
        ddtCorrDdt0(U)

    Reconstructing surfaceScalarFields

        alphaPhi0.water
        ddtCorrDdt0(phi)
        phi
        phi_0

Reconstructing point fields

No point fields

No lagrangian fields

No FA fields

Time = 1.85

Reconstructing FV fields

    Reconstructing volScalarFields

        alpha.water
        p
        p_rgh

    Reconstructing volVectorFields

        U
        U_0
        ddt0(rho,U)
        ddtCorrDdt0(U)

    Reconstructing surfaceScalarFields

        alphaPhi0.water
        ddtCorrDdt0(phi)
        phi
        phi_0

Reconstructing point fields

No point fields

No lagrangian fields

No FA fields

Time = 1.9

Reconstructing FV fields

    Reconstructing volScalarFields

        alpha.water
        p
        p_rgh

    Reconstructing volVectorFields

        U
        U_0
        ddt0(rho,U)
        ddtCorrDdt0(U)

    Reconstructing surfaceScalarFields

        alphaPhi0.water
        ddtCorrDdt0(phi)
        phi
        phi_0

Reconstructing point fields

No point fields

No lagrangian fields

No FA fields

Time = 1.95

Reconstructing FV fields

    Reconstructing volScalarFields

        alpha.water
        p
        p_rgh

    Reconstructing volVectorFields

        U
        U_0
        ddt0(rho,U)
        ddtCorrDdt0(U)

    Reconstructing surfaceScalarFields

        alphaPhi0.water
        ddtCorrDdt0(phi)
        phi
        phi_0

Reconstructing point fields

No point fields

No lagrangian fields

No FA fields

Time = 2

Reconstructing FV fields

    Reconstructing volScalarFields

        alpha.water
        p
        p_rgh

    Reconstructing volVectorFields

        U
        U_0
        ddt0(rho,U)
        ddtCorrDdt0(U)

    Reconstructing surfaceScalarFields

        alphaPhi0.water
        ddtCorrDdt0(phi)
        phi
        phi_0

Reconstructing point fields

No point fields

No lagrangian fields

No FA fields

Time = 2.05

Reconstructing FV fields

    Reconstructing volScalarFields

        alpha.water
        p
        p_rgh

    Reconstructing volVectorFields

        U
        U_0
        ddt0(rho,U)
        ddtCorrDdt0(U)

    Reconstructing surfaceScalarFields

        alphaPhi0.water
        ddtCorrDdt0(phi)
        phi
        phi_0

Reconstructing point fields

No point fields

No lagrangian fields

No FA fields

Time = 2.1

Reconstructing FV fields

    Reconstructing volScalarFields

        alpha.water
        p
        p_rgh

    Reconstructing volVectorFields

        U
        U_0
        ddt0(rho,U)
        ddtCorrDdt0(U)

    Reconstructing surfaceScalarFields

        alphaPhi0.water
        ddtCorrDdt0(phi)
        phi
        phi_0

Reconstructing point fields

No point fields

No lagrangian fields

No FA fields

Time = 2.15

Reconstructing FV fields

    Reconstructing volScalarFields

        alpha.water
        p
        p_rgh

    Reconstructing volVectorFields

        U
        U_0
        ddt0(rho,U)
        ddtCorrDdt0(U)

    Reconstructing surfaceScalarFields

        alphaPhi0.water
        ddtCorrDdt0(phi)
        phi
        phi_0

Reconstructing point fields

No point fields

No lagrangian fields

No FA fields

Time = 2.2

Reconstructing FV fields

    Reconstructing volScalarFields

        alpha.water
        p
        p_rgh

    Reconstructing volVectorFields

        U
        U_0
        ddt0(rho,U)
        ddtCorrDdt0(U)

    Reconstructing surfaceScalarFields

        alphaPhi0.water
        ddtCorrDdt0(phi)
        phi
        phi_0

Reconstructing point fields

No point fields

No lagrangian fields

No FA fields

Time = 2.25

Reconstructing FV fields

    Reconstructing volScalarFields

        alpha.water
        p
        p_rgh

    Reconstructing volVectorFields

        U
        U_0
        ddt0(rho,U)
        ddtCorrDdt0(U)

    Reconstructing surfaceScalarFields

        alphaPhi0.water
        ddtCorrDdt0(phi)
        phi
        phi_0

Reconstructing point fields

No point fields

No lagrangian fields

No FA fields

Time = 2.3

Reconstructing FV fields

    Reconstructing volScalarFields

        alpha.water
        p
        p_rgh

    Reconstructing volVectorFields

        U
        U_0
        ddt0(rho,U)
        ddtCorrDdt0(U)

    Reconstructing surfaceScalarFields

        alphaPhi0.water
        ddtCorrDdt0(phi)
        phi
        phi_0

Reconstructing point fields

No point fields

No lagrangian fields

No FA fields

Time = 2.35

Reconstructing FV fields

    Reconstructing volScalarFields

        alpha.water
        p
        p_rgh

    Reconstructing volVectorFields

        U
        U_0
        ddt0(rho,U)
        ddtCorrDdt0(U)

    Reconstructing surfaceScalarFields

        alphaPhi0.water
        ddtCorrDdt0(phi)
        phi
        phi_0

Reconstructing point fields

No point fields

No lagrangian fields

No FA fields

Time = 2.4

Reconstructing FV fields

    Reconstructing volScalarFields

        alpha.water
        p
        p_rgh

    Reconstructing volVectorFields

        U
        U_0
        ddt0(rho,U)
        ddtCorrDdt0(U)

    Reconstructing surfaceScalarFields

        alphaPhi0.water
        ddtCorrDdt0(phi)
        phi
        phi_0

Reconstructing point fields

No point fields

No lagrangian fields

No FA fields

Time = 2.45

Reconstructing FV fields

    Reconstructing volScalarFields

        alpha.water
        p
        p_rgh

    Reconstructing volVectorFields

        U
        U_0
        ddt0(rho,U)
        ddtCorrDdt0(U)

    Reconstructing surfaceScalarFields

        alphaPhi0.water
        ddtCorrDdt0(phi)
        phi
        phi_0

Reconstructing point fields

No point fields

No lagrangian fields

No FA fields

Time = 2.5

Reconstructing FV fields

    Reconstructing volScalarFields

        alpha.water
        p
        p_rgh

    Reconstructing volVectorFields

        U
        U_0
        ddt0(rho,U)
        ddtCorrDdt0(U)

    Reconstructing surfaceScalarFields

        alphaPhi0.water
        ddtCorrDdt0(phi)
        phi
        phi_0

Reconstructing point fields

No point fields

No lagrangian fields

No FA fields

Time = 2.55

Reconstructing FV fields

    Reconstructing volScalarFields

        alpha.water
        p
        p_rgh

    Reconstructing volVectorFields

        U
        U_0
        ddt0(rho,U)
        ddtCorrDdt0(U)

    Reconstructing surfaceScalarFields

        alphaPhi0.water
        ddtCorrDdt0(phi)
        phi
        phi_0

Reconstructing point fields

No point fields

No lagrangian fields

No FA fields

Time = 2.6

Reconstructing FV fields

    Reconstructing volScalarFields

        alpha.water
        p
        p_rgh

    Reconstructing volVectorFields

        U
        U_0
        ddt0(rho,U)
        ddtCorrDdt0(U)

    Reconstructing surfaceScalarFields

        alphaPhi0.water
        ddtCorrDdt0(phi)
        phi
        phi_0

Reconstructing point fields

No point fields

No lagrangian fields

No FA fields

Time = 2.65

Reconstructing FV fields

    Reconstructing volScalarFields

        alpha.water
        p
        p_rgh

    Reconstructing volVectorFields

        U
        U_0
        ddt0(rho,U)
        ddtCorrDdt0(U)

    Reconstructing surfaceScalarFields

        alphaPhi0.water
        ddtCorrDdt0(phi)
        phi
        phi_0

Reconstructing point fields

No point fields

No lagrangian fields

No FA fields

Time = 2.7

Reconstructing FV fields

    Reconstructing volScalarFields

        alpha.water
        p
        p_rgh

    Reconstructing volVectorFields

        U
        U_0
        ddt0(rho,U)
        ddtCorrDdt0(U)

    Reconstructing surfaceScalarFields

        alphaPhi0.water
        ddtCorrDdt0(phi)
        phi
        phi_0

Reconstructing point fields

No point fields

No lagrangian fields

No FA fields

Time = 2.75

Reconstructing FV fields

    Reconstructing volScalarFields

        alpha.water
        p
        p_rgh

    Reconstructing volVectorFields

        U
        U_0
        ddt0(rho,U)
        ddtCorrDdt0(U)

    Reconstructing surfaceScalarFields

        alphaPhi0.water
        ddtCorrDdt0(phi)
        phi
        phi_0

Reconstructing point fields

No point fields

No lagrangian fields

No FA fields

Time = 2.8

Reconstructing FV fields

    Reconstructing volScalarFields

        alpha.water
        p
        p_rgh

    Reconstructing volVectorFields

        U
        U_0
        ddt0(rho,U)
        ddtCorrDdt0(U)

    Reconstructing surfaceScalarFields

        alphaPhi0.water
        ddtCorrDdt0(phi)
        phi
        phi_0

Reconstructing point fields

No point fields

No lagrangian fields

No FA fields

Time = 2.85

Reconstructing FV fields

    Reconstructing volScalarFields

        alpha.water
        p
        p_rgh

    Reconstructing volVectorFields

        U
        U_0
        ddt0(rho,U)
        ddtCorrDdt0(U)

    Reconstructing surfaceScalarFields

        alphaPhi0.water
        ddtCorrDdt0(phi)
        phi
        phi_0

Reconstructing point fields

No point fields

No lagrangian fields

No FA fields

Time = 2.9

Reconstructing FV fields

    Reconstructing volScalarFields

        alpha.water
        p
        p_rgh

    Reconstructing volVectorFields

        U
        U_0
        ddt0(rho,U)
        ddtCorrDdt0(U)

    Reconstructing surfaceScalarFields

        alphaPhi0.water
        ddtCorrDdt0(phi)
        phi
        phi_0

Reconstructing point fields

No point fields

No lagrangian fields

No FA fields

Time = 2.95

Reconstructing FV fields

    Reconstructing volScalarFields

        alpha.water
        p
        p_rgh

    Reconstructing volVectorFields

        U
        U_0
        ddt0(rho,U)
        ddtCorrDdt0(U)

    Reconstructing surfaceScalarFields

        alphaPhi0.water
        ddtCorrDdt0(phi)
        phi
        phi_0

Reconstructing point fields

No point fields

No lagrangian fields

No FA fields

Time = 3

Reconstructing FV fields

    Reconstructing volScalarFields

        alpha.water
        p
        p_rgh

    Reconstructing volVectorFields

        U
        U_0
        ddt0(rho,U)
        ddtCorrDdt0(U)

    Reconstructing surfaceScalarFields

        alphaPhi0.water
        ddtCorrDdt0(phi)
        phi
        phi_0

Reconstructing point fields

No point fields

No lagrangian fields

No FA fields


End

