/*---------------------------------------------------------------------------*\
| =========                 |                                                 |
| \\      /  F ield         | OpenFOAM: The Open Source CFD Toolbox           |
|  \\    /   O peration     | Version:  2412                                  |
|   \\  /    A nd           | Website:  www.openfoam.com                      |
|    \\/     M anipulation  |                                                 |
\*---------------------------------------------------------------------------*/
Build  : _8dbc61e11c-20241220 OPENFOAM=2412 version=v2412
Arch   : "LSB;label=32;scalar=64"
Exec   : setFields
Date   : May 30 2025
Time   : 09:19:50
Host   : WORKHORSE
PID    : 3661496
I/O    : uncollated
Case   : /home/adrian/OpenFOAM/adrian-v2412/run/bubble/mesh_160_Co_0.01
nProcs : 1
trapFpe: Floating point exception trapping enabled (FOAM_SIGFPE).
fileModificationChecking : Monitoring run-time modified files using timeStampMaster (fileModificationSkew 5, maxFileModificationPolls 20)
allowSystemOperations : Allowing user-supplied system call operations

// * * * * * * * * * * * * * * * * * * * * * * * * * * * * * * * * * * * * * //
Create time

Create mesh for time = 0

Reading setFieldsDict

Setting volume field default values
    - set internal values of volScalarField: alpha.water = 1

Setting field region values

    Adding cells with centres within cylinder, with point1 = (0.5 0.5 0), point2 = (0.5 0.5 0.1), radius = 0.25
    Selected 5024/51200 cells
    - set internal values of volScalarField: alpha.water = 0

End

