No protocol specified

Invalid MIT-MAGIC-COOKIE-1 key
No protocol specified

Invalid MIT-MAGIC-COOKIE-1 key
No protocol specified

Invalid MIT-MAGIC-COOKIE-1 key
No protocol specified

Invalid MIT-MAGIC-COOKIE-1 key
No protocol specified

Invalid MIT-MAGIC-COOKIE-1 key
No protocol specified

Invalid MIT-MAGIC-COOKIE-1 key
No protocol specified

Invalid MIT-MAGIC-COOKIE-1 key
No protocol specified

Invalid MIT-MAGIC-COOKIE-1 key
No protocol specified

Invalid MIT-MAGIC-COOKIE-1 key
No protocol specified

Invalid MIT-MAGIC-COOKIE-1 key
No protocol specified

No protocol specified

Invalid MIT-MAGIC-COOKIE-1 key
Invalid MIT-MAGIC-COOKIE-1 key
No protocol specified

Invalid MIT-MAGIC-COOKIE-1 key
No protocol specified

Invalid MIT-MAGIC-COOKIE-1 key
No protocol specified

Invalid MIT-MAGIC-COOKIE-1 key
No protocol specified

Invalid MIT-MAGIC-COOKIE-1 key
No protocol specified

Invalid MIT-MAGIC-COOKIE-1 key
No protocol specified

Invalid MIT-MAGIC-COOKIE-1 key
/*---------------------------------------------------------------------------*\
| =========                 |                                                 |
| \\      /  F ield         | OpenFOAM: The Open Source CFD Toolbox           |
|  \\    /   O peration     | Version:  2412                                  |
|   \\  /    A nd           | Website:  www.openfoam.com                      |
|    \\/     M anipulation  |                                                 |
\*---------------------------------------------------------------------------*/
Build  : _8dbc61e11c-20241220 OPENFOAM=2412 version=v2412
Arch   : "LSB;label=32;scalar=64"
Exec   : interFoam -parallel
Date   : May 30 2025
Time   : 09:16:11
Host   : WORKHORSE
PID    : 3661307
I/O    : uncollated
Case   : /home/adrian/OpenFOAM/adrian-v2412/run/bubble/mesh_80_Co_0.1
nProcs : 16
Hosts  :
(
    (WORKHORSE 16)
)
Pstream initialized with:
    floatTransfer      : false
    maxCommsSize       : 0
    nProcsSimpleSum    : 0
    nonBlockingExchange: 0 (tuning: 0)
    exchange algorithm : 0
    commsType          : nonBlocking
    polling iterations : 0
trapFpe: Floating point exception trapping enabled (FOAM_SIGFPE).
fileModificationChecking : Monitoring run-time modified files using timeStampMaster (fileModificationSkew 5, maxFileModificationPolls 20)
allowSystemOperations : Allowing user-supplied system call operations

// * * * * * * * * * * * * * * * * * * * * * * * * * * * * * * * * * * * * * //
Create time

Create mesh for time = 0


PIMPLE: Operating solver in PISO mode

Reading field p_rgh

Reading field U

Reading/calculating face flux field phi

Reading transportProperties

Selecting incompressible transport model Newtonian
Selecting incompressible transport model Newtonian
Selecting turbulence model type laminar
Selecting laminar stress model Stokes

Reading g

Reading hRef
Calculating field g.h

No MRF models present

No finite volume options present
DICPCG:  Solving for pcorr, Initial residual = 0, Final residual = 0, No Iterations 0
time step continuity errors : sum local = 0, global = 0, cumulative = 0
Courant Number mean: 0 max: 0

Starting time loop

Sampled surface:
    interface -> raw
        isoSurface: interface : isoMethod:default regularise:full snap:1 field:alpha.water value:(0.5)

surfaceFieldValue bubbleArea:
    operation     = areaIntegrate
    sampled surface: isoSurface: bubbleArea : isoMethod:topo regularise:full snap:1 field:alpha.water value:(0.5)


Courant Number mean: 0 max: 0
Interface Courant Number mean: 0 max: 0
deltaT = 0.0125
Time = 0.0125

PIMPLE: iteration 1
smoothSolver:  Solving for alpha.water, Initial residual = 0, Final residual = 0, No Iterations 0
Phase-1 volume fraction = 0.90125  Min(alpha.water) = 0  Max(alpha.water) = 1
MULES: Correcting alpha.water
MULES: Correcting alpha.water
Phase-1 volume fraction = 0.90125  Min(alpha.water) = 0  Max(alpha.water) = 1
DICPCG:  Solving for p_rgh, Initial residual = 1, Final residual = 0.0487733, No Iterations 22
time step continuity errors : sum local = 0.000574545, global = 5.0822e-20, cumulative = 5.0822e-20
DICPCG:  Solving for p_rgh, Initial residual = 0.0286353, Final residual = 0.00127828, No Iterations 118
time step continuity errors : sum local = 3.20088e-05, global = -2.92401e-08, cumulative = -2.92401e-08
DICPCG:  Solving for p_rgh, Initial residual = 0.00788284, Final residual = 9.44917e-08, No Iterations 193
time step continuity errors : sum local = 2.4098e-09, global = 4.57202e-12, cumulative = -2.92355e-08
ExecutionTime = 0.17 s  ClockTime = 0 s

Courant Number mean: 0.00208723 max: 0.0405329
Interface Courant Number mean: 0 max: 0
deltaT = 0.0125
Time = 0.025

PIMPLE: iteration 1
smoothSolver:  Solving for alpha.water, Initial residual = 0.000423173, Final residual = 1.24448e-09, No Iterations 2
Phase-1 volume fraction = 0.90125  Min(alpha.water) = 2.16528e-86  Max(alpha.water) = 1
MULES: Correcting alpha.water
MULES: Correcting alpha.water
Phase-1 volume fraction = 0.90125  Min(alpha.water) = -6.27464e-11  Max(alpha.water) = 1
DICPCG:  Solving for p_rgh, Initial residual = 0.0440736, Final residual = 0.00194159, No Iterations 2
time step continuity errors : sum local = 4.39735e-05, global = -2.46271e-09, cumulative = -3.16983e-08
DICPCG:  Solving for p_rgh, Initial residual = 0.00349705, Final residual = 0.000171702, No Iterations 26
time step continuity errors : sum local = 3.86155e-06, global = -1.10907e-08, cumulative = -4.27889e-08
DICPCG:  Solving for p_rgh, Initial residual = 0.00133548, Final residual = 9.23225e-08, No Iterations 181
time step continuity errors : sum local = 2.07427e-09, global = 5.89237e-12, cumulative = -4.27831e-08
ExecutionTime = 0.18 s  ClockTime = 0 s

Courant Number mean: 0.00351202 max: 0.0423907
Interface Courant Number mean: 0.000147501 max: 0.0423907
deltaT = 0.0125
Time = 0.0375

PIMPLE: iteration 1
smoothSolver:  Solving for alpha.water, Initial residual = 0.000428287, Final residual = 2.22009e-09, No Iterations 2
Phase-1 volume fraction = 0.90125  Min(alpha.water) = -1.87932e-15  Max(alpha.water) = 1
MULES: Correcting alpha.water
MULES: Correcting alpha.water
Phase-1 volume fraction = 0.90125  Min(alpha.water) = -7.09609e-13  Max(alpha.water) = 1
DICPCG:  Solving for p_rgh, Initial residual = 0.0374909, Final residual = 0.00164835, No Iterations 2
time step continuity errors : sum local = 3.60157e-05, global = 5.51515e-09, cumulative = -3.72679e-08
DICPCG:  Solving for p_rgh, Initial residual = 0.00273387, Final residual = 0.000123903, No Iterations 26
time step continuity errors : sum local = 2.68619e-06, global = 7.23367e-09, cumulative = -3.00342e-08
DICPCG:  Solving for p_rgh, Initial residual = 0.00115303, Final residual = 9.65467e-08, No Iterations 178
time step continuity errors : sum local = 2.09197e-09, global = 4.05485e-12, cumulative = -3.00302e-08
ExecutionTime = 0.19 s  ClockTime = 0 s

Courant Number mean: 0.00572375 max: 0.0525994
Interface Courant Number mean: 0.000211302 max: 0.0525994
deltaT = 0.0125
Time = 0.05

PIMPLE: iteration 1
smoothSolver:  Solving for alpha.water, Initial residual = 0.000498433, Final residual = 4.21474e-09, No Iterations 2
Phase-1 volume fraction = 0.90125  Min(alpha.water) = -1.85096e-15  Max(alpha.water) = 1
MULES: Correcting alpha.water
MULES: Correcting alpha.water
Phase-1 volume fraction = 0.90125  Min(alpha.water) = -1.23304e-12  Max(alpha.water) = 1
DICPCG:  Solving for p_rgh, Initial residual = 0.037441, Final residual = 0.0014662, No Iterations 2
time step continuity errors : sum local = 3.10742e-05, global = -3.98807e-09, cumulative = -3.40183e-08
DICPCG:  Solving for p_rgh, Initial residual = 0.00222481, Final residual = 0.000106781, No Iterations 28
time step continuity errors : sum local = 2.24236e-06, global = -6.39423e-09, cumulative = -4.04125e-08
DICPCG:  Solving for p_rgh, Initial residual = 0.000974618, Final residual = 9.71496e-08, No Iterations 178
time step continuity errors : sum local = 2.03865e-09, global = 2.29141e-12, cumulative = -4.04102e-08
ExecutionTime = 0.21 s  ClockTime = 0 s

Courant Number mean: 0.00742692 max: 0.0548081
Interface Courant Number mean: 0.00027828 max: 0.0548081
deltaT = 0.0166667
Time = 0.0666667

PIMPLE: iteration 1
smoothSolver:  Solving for alpha.water, Initial residual = 0.0007066, Final residual = 5.34094e-12, No Iterations 3
Phase-1 volume fraction = 0.90125  Min(alpha.water) = -5.81196e-16  Max(alpha.water) = 1
MULES: Correcting alpha.water
MULES: Correcting alpha.water
Phase-1 volume fraction = 0.90125  Min(alpha.water) = -1.05934e-12  Max(alpha.water) = 1
DICPCG:  Solving for p_rgh, Initial residual = 0.0474362, Final residual = 0.00198996, No Iterations 2
time step continuity errors : sum local = 5.61706e-05, global = 4.42041e-09, cumulative = -3.59898e-08
DICPCG:  Solving for p_rgh, Initial residual = 0.00303134, Final residual = 0.000116508, No Iterations 26
time step continuity errors : sum local = 3.25636e-06, global = -2.44888e-09, cumulative = -3.84387e-08
DICPCG:  Solving for p_rgh, Initial residual = 0.0013435, Final residual = 8.87779e-08, No Iterations 170
time step continuity errors : sum local = 2.47924e-09, global = -5.37118e-12, cumulative = -3.8444e-08
ExecutionTime = 0.23 s  ClockTime = 0 s

Courant Number mean: 0.0128625 max: 0.0832059
Interface Courant Number mean: 0.000453403 max: 0.0831073
deltaT = 0.0166667
Time = 0.0833333

PIMPLE: iteration 1
smoothSolver:  Solving for alpha.water, Initial residual = 0.000829985, Final residual = 7.34582e-12, No Iterations 3
Phase-1 volume fraction = 0.90125  Min(alpha.water) = -4.35157e-20  Max(alpha.water) = 1
MULES: Correcting alpha.water
MULES: Correcting alpha.water
Phase-1 volume fraction = 0.90125  Min(alpha.water) = -6.15092e-15  Max(alpha.water) = 1
DICPCG:  Solving for p_rgh, Initial residual = 0.052034, Final residual = 0.00233855, No Iterations 2
time step continuity errors : sum local = 6.48397e-05, global = 8.01194e-10, cumulative = -3.76428e-08
DICPCG:  Solving for p_rgh, Initial residual = 0.00339735, Final residual = 0.000168711, No Iterations 28
time step continuity errors : sum local = 4.65334e-06, global = 3.33274e-09, cumulative = -3.43101e-08
DICPCG:  Solving for p_rgh, Initial residual = 0.00152255, Final residual = 9.21172e-08, No Iterations 171
time step continuity errors : sum local = 2.53792e-09, global = -4.3131e-15, cumulative = -3.43101e-08
ExecutionTime = 0.24 s  ClockTime = 0 s

Courant Number mean: 0.0155022 max: 0.091313
Interface Courant Number mean: 0.000538986 max: 0.0881066
deltaT = 0.0166667
Time = 0.1

PIMPLE: iteration 1
smoothSolver:  Solving for alpha.water, Initial residual = 0.000936305, Final residual = 7.98128e-12, No Iterations 3
Phase-1 volume fraction = 0.90125  Min(alpha.water) = -4.14844e-20  Max(alpha.water) = 1
MULES: Correcting alpha.water
MULES: Correcting alpha.water
Phase-1 volume fraction = 0.90125  Min(alpha.water) = -4.57869e-14  Max(alpha.water) = 1
DICPCG:  Solving for p_rgh, Initial residual = 0.0541882, Final residual = 0.00245011, No Iterations 2
time step continuity errors : sum local = 6.72322e-05, global = -1.70901e-09, cumulative = -3.60191e-08
DICPCG:  Solving for p_rgh, Initial residual = 0.00368365, Final residual = 0.000170743, No Iterations 17
time step continuity errors : sum local = 4.66783e-06, global = -1.08486e-08, cumulative = -4.68677e-08
DICPCG:  Solving for p_rgh, Initial residual = 0.00162258, Final residual = 8.90567e-08, No Iterations 170
time step continuity errors : sum local = 2.43215e-09, global = 1.28251e-11, cumulative = -4.68549e-08
ExecutionTime = 0.27 s  ClockTime = 0 s

Courant Number mean: 0.01825 max: 0.101152
Interface Courant Number mean: 0.000651984 max: 0.0961984
deltaT = 0.0166667
Time = 0.116667

PIMPLE: iteration 1
smoothSolver:  Solving for alpha.water, Initial residual = 0.00106296, Final residual = 8.81608e-12, No Iterations 3
Phase-1 volume fraction = 0.90125  Min(alpha.water) = -3.91758e-20  Max(alpha.water) = 1
MULES: Correcting alpha.water
MULES: Correcting alpha.water
Phase-1 volume fraction = 0.90125  Min(alpha.water) = -6.58753e-13  Max(alpha.water) = 1
DICPCG:  Solving for p_rgh, Initial residual = 0.0562086, Final residual = 0.002691, No Iterations 2
time step continuity errors : sum local = 7.36171e-05, global = 5.11691e-09, cumulative = -4.1738e-08
DICPCG:  Solving for p_rgh, Initial residual = 0.00390607, Final residual = 0.000168316, No Iterations 29
time step continuity errors : sum local = 4.59705e-06, global = 1.19862e-08, cumulative = -2.97518e-08
DICPCG:  Solving for p_rgh, Initial residual = 0.00174379, Final residual = 8.70416e-08, No Iterations 172
time step continuity errors : sum local = 2.37419e-09, global = -1.3481e-12, cumulative = -2.97531e-08
ExecutionTime = 0.28 s  ClockTime = 0 s

Courant Number mean: 0.0209265 max: 0.1083
Interface Courant Number mean: 0.000740367 max: 0.102397
deltaT = 0.0166667
Time = 0.133333

PIMPLE: iteration 1
smoothSolver:  Solving for alpha.water, Initial residual = 0.00118111, Final residual = 9.73868e-12, No Iterations 3
Phase-1 volume fraction = 0.90125  Min(alpha.water) = -3.6658e-20  Max(alpha.water) = 1
MULES: Correcting alpha.water
MULES: Correcting alpha.water
Phase-1 volume fraction = 0.90125  Min(alpha.water) = -5.39646e-12  Max(alpha.water) = 1
DICPCG:  Solving for p_rgh, Initial residual = 0.0575091, Final residual = 0.00281152, No Iterations 2
time step continuity errors : sum local = 7.69002e-05, global = -5.75147e-09, cumulative = -3.55046e-08
DICPCG:  Solving for p_rgh, Initial residual = 0.00415017, Final residual = 0.000200412, No Iterations 15
time step continuity errors : sum local = 5.47576e-06, global = -1.47986e-08, cumulative = -5.03032e-08
DICPCG:  Solving for p_rgh, Initial residual = 0.00184241, Final residual = 9.3335e-08, No Iterations 172
time step continuity errors : sum local = 2.54698e-09, global = 2.04893e-12, cumulative = -5.03012e-08
ExecutionTime = 0.29 s  ClockTime = 0 s

Courant Number mean: 0.0236077 max: 0.115952
Interface Courant Number mean: 0.000852014 max: 0.109541
deltaT = 0.0166667
Time = 0.15

PIMPLE: iteration 1
smoothSolver:  Solving for alpha.water, Initial residual = 0.00130114, Final residual = 1.26793e-11, No Iterations 3
Phase-1 volume fraction = 0.90125  Min(alpha.water) = -3.39846e-20  Max(alpha.water) = 1
MULES: Correcting alpha.water
MULES: Correcting alpha.water
Phase-1 volume fraction = 0.90125  Min(alpha.water) = -1.67598e-11  Max(alpha.water) = 1
DICPCG:  Solving for p_rgh, Initial residual = 0.0603771, Final residual = 0.00181854, No Iterations 3
time step continuity errors : sum local = 4.97337e-05, global = 7.90863e-09, cumulative = -4.23925e-08
DICPCG:  Solving for p_rgh, Initial residual = 0.00268841, Final residual = 9.79744e-05, No Iterations 30
time step continuity errors : sum local = 2.66753e-06, global = 2.7058e-08, cumulative = -1.53345e-08
DICPCG:  Solving for p_rgh, Initial residual = 0.00119177, Final residual = 8.97447e-08, No Iterations 172
time step continuity errors : sum local = 2.44125e-09, global = 3.4679e-12, cumulative = -1.5331e-08
ExecutionTime = 0.32 s  ClockTime = 0 s

Courant Number mean: 0.026259 max: 0.121858
Interface Courant Number mean: 0.000964637 max: 0.11625
deltaT = 0.0125
Time = 0.1625

PIMPLE: iteration 1
smoothSolver:  Solving for alpha.water, Initial residual = 0.00106286, Final residual = 9.32679e-09, No Iterations 2
Phase-1 volume fraction = 0.90125  Min(alpha.water) = -3.18672e-20  Max(alpha.water) = 1
MULES: Correcting alpha.water
MULES: Correcting alpha.water
Phase-1 volume fraction = 0.90125  Min(alpha.water) = -1.64796e-11  Max(alpha.water) = 1
DICPCG:  Solving for p_rgh, Initial residual = 0.0477218, Final residual = 0.00148045, No Iterations 3
time step continuity errors : sum local = 2.97349e-05, global = -9.80255e-09, cumulative = -2.51336e-08
DICPCG:  Solving for p_rgh, Initial residual = 0.00225017, Final residual = 0.000107708, No Iterations 19
time step continuity errors : sum local = 2.14983e-06, global = -2.26494e-08, cumulative = -4.7783e-08
DICPCG:  Solving for p_rgh, Initial residual = 0.000987356, Final residual = 9.82082e-08, No Iterations 158
time step continuity errors : sum local = 1.95934e-09, global = -9.17389e-12, cumulative = -4.77922e-08
ExecutionTime = 0.34 s  ClockTime = 0 s

Courant Number mean: 0.0213868 max: 0.0955333
Interface Courant Number mean: 0.000806561 max: 0.0916035
deltaT = 0.0125
Time = 0.175

PIMPLE: iteration 1
smoothSolver:  Solving for alpha.water, Initial residual = 0.00113538, Final residual = 9.83266e-09, No Iterations 2
Phase-1 volume fraction = 0.90125  Min(alpha.water) = -2.97003e-20  Max(alpha.water) = 1
MULES: Correcting alpha.water
MULES: Correcting alpha.water
Phase-1 volume fraction = 0.90125  Min(alpha.water) = -1.86378e-10  Max(alpha.water) = 1
DICPCG:  Solving for p_rgh, Initial residual = 0.0498595, Final residual = 0.00174229, No Iterations 3
time step continuity errors : sum local = 3.48362e-05, global = 1.10204e-08, cumulative = -3.67718e-08
DICPCG:  Solving for p_rgh, Initial residual = 0.00260111, Final residual = 9.66015e-05, No Iterations 30
time step continuity errors : sum local = 1.91351e-06, global = 3.54076e-08, cumulative = -1.36416e-09
DICPCG:  Solving for p_rgh, Initial residual = 0.00115359, Final residual = 9.83024e-08, No Iterations 172
time step continuity errors : sum local = 1.94563e-09, global = 2.2603e-12, cumulative = -1.3619e-09
ExecutionTime = 0.35 s  ClockTime = 0 s

Courant Number mean: 0.0231952 max: 0.100293
Interface Courant Number mean: 0.000915763 max: 0.0963566
deltaT = 0.0125
Time = 0.1875

PIMPLE: iteration 1
smoothSolver:  Solving for alpha.water, Initial residual = 0.00121283, Final residual = 6.31769e-12, No Iterations 3
Phase-1 volume fraction = 0.90125  Min(alpha.water) = -2.75066e-20  Max(alpha.water) = 1
MULES: Correcting alpha.water
MULES: Correcting alpha.water
Phase-1 volume fraction = 0.90125  Min(alpha.water) = -2.08617e-10  Max(alpha.water) = 1
DICPCG:  Solving for p_rgh, Initial residual = 0.0540556, Final residual = 0.00188959, No Iterations 3
time step continuity errors : sum local = 3.75276e-05, global = -1.6999e-08, cumulative = -1.83609e-08
DICPCG:  Solving for p_rgh, Initial residual = 0.0028682, Final residual = 0.000118381, No Iterations 19
time step continuity errors : sum local = 2.32048e-06, global = -3.78465e-08, cumulative = -5.62075e-08
DICPCG:  Solving for p_rgh, Initial residual = 0.00122136, Final residual = 8.69712e-08, No Iterations 160
time step continuity errors : sum local = 1.7037e-09, global = -9.45479e-12, cumulative = -5.62169e-08
ExecutionTime = 0.36 s  ClockTime = 0 s

Courant Number mean: 0.0249631 max: 0.106132
Interface Courant Number mean: 0.00105716 max: 0.101652
deltaT = 0.0125
Time = 0.2

PIMPLE: iteration 1
smoothSolver:  Solving for alpha.water, Initial residual = 0.00128618, Final residual = 7.70719e-12, No Iterations 3
Phase-1 volume fraction = 0.90125  Min(alpha.water) = -2.53213e-20  Max(alpha.water) = 1
MULES: Correcting alpha.water
MULES: Correcting alpha.water
Phase-1 volume fraction = 0.90125  Min(alpha.water) = -2.02657e-10  Max(alpha.water) = 1
DICPCG:  Solving for p_rgh, Initial residual = 0.0580029, Final residual = 0.00214714, No Iterations 3
time step continuity errors : sum local = 4.21975e-05, global = 1.82672e-08, cumulative = -3.79497e-08
DICPCG:  Solving for p_rgh, Initial residual = 0.00320669, Final residual = 0.000156069, No Iterations 29
time step continuity errors : sum local = 3.01293e-06, global = 4.93584e-08, cumulative = 1.14087e-08
DICPCG:  Solving for p_rgh, Initial residual = 0.00138405, Final residual = 8.72434e-08, No Iterations 174
time step continuity errors : sum local = 1.68257e-09, global = 3.71897e-12, cumulative = 1.14125e-08
ExecutionTime = 0.38 s  ClockTime = 0 s

Courant Number mean: 0.0267297 max: 0.11191
Interface Courant Number mean: 0.00113995 max: 0.107521
deltaT = 0.0125
Time = 0.2125

PIMPLE: iteration 1
smoothSolver:  Solving for alpha.water, Initial residual = 0.00135837, Final residual = 9.29429e-12, No Iterations 3
Phase-1 volume fraction = 0.90125  Min(alpha.water) = -2.31716e-20  Max(alpha.water) = 1
MULES: Correcting alpha.water
MULES: Correcting alpha.water
Phase-1 volume fraction = 0.90125  Min(alpha.water) = -1.77451e-10  Max(alpha.water) = 1
DICPCG:  Solving for p_rgh, Initial residual = 0.0638697, Final residual = 0.00240691, No Iterations 3
time step continuity errors : sum local = 4.6745e-05, global = -2.36685e-08, cumulative = -1.2256e-08
DICPCG:  Solving for p_rgh, Initial residual = 0.00362317, Final residual = 0.000180989, No Iterations 18
time step continuity errors : sum local = 3.44083e-06, global = -5.00535e-08, cumulative = -6.23095e-08
DICPCG:  Solving for p_rgh, Initial residual = 0.0015002, Final residual = 8.22841e-08, No Iterations 161
time step continuity errors : sum local = 1.56299e-09, global = -9.1464e-12, cumulative = -6.23187e-08
ExecutionTime = 0.39 s  ClockTime = 0 s

Courant Number mean: 0.0284828 max: 0.117622
Interface Courant Number mean: 0.00128066 max: 0.113485
deltaT = 0.009375
Time = 0.221875

PIMPLE: iteration 1
smoothSolver:  Solving for alpha.water, Initial residual = 0.00107165, Final residual = 4.54477e-09, No Iterations 2
Phase-1 volume fraction = 0.90125  Min(alpha.water) = -2.15697e-20  Max(alpha.water) = 1
MULES: Correcting alpha.water
MULES: Correcting alpha.water
Phase-1 volume fraction = 0.90125  Min(alpha.water) = -3.04851e-11  Max(alpha.water) = 1
DICPCG:  Solving for p_rgh, Initial residual = 0.0518533, Final residual = 0.00201828, No Iterations 3
time step continuity errors : sum local = 2.83028e-05, global = 1.60318e-08, cumulative = -4.62869e-08
DICPCG:  Solving for p_rgh, Initial residual = 0.00296624, Final residual = 0.000144985, No Iterations 29
time step continuity errors : sum local = 1.99747e-06, global = 3.90747e-08, cumulative = -7.21214e-09
DICPCG:  Solving for p_rgh, Initial residual = 0.00124745, Final residual = 8.72573e-08, No Iterations 174
time step continuity errors : sum local = 1.20114e-09, global = 2.57427e-12, cumulative = -7.20956e-09
ExecutionTime = 0.4 s  ClockTime = 0 s

Courant Number mean: 0.0224537 max: 0.0916941
Interface Courant Number mean: 0.00100344 max: 0.0887594
deltaT = 0.009375
Time = 0.23125

PIMPLE: iteration 1
smoothSolver:  Solving for alpha.water, Initial residual = 0.00111497, Final residual = 4.64446e-09, No Iterations 2
Phase-1 volume fraction = 0.90125  Min(alpha.water) = -2.00052e-20  Max(alpha.water) = 1
MULES: Correcting alpha.water
MULES: Correcting alpha.water
Phase-1 volume fraction = 0.90125  Min(alpha.water) = -2.37463e-11  Max(alpha.water) = 1
DICPCG:  Solving for p_rgh, Initial residual = 0.0552977, Final residual = 0.0022676, No Iterations 3
time step continuity errors : sum local = 3.14012e-05, global = -1.66516e-08, cumulative = -2.38612e-08
DICPCG:  Solving for p_rgh, Initial residual = 0.00339636, Final residual = 0.000163706, No Iterations 18
time step continuity errors : sum local = 2.22131e-06, global = -3.28267e-08, cumulative = -5.66879e-08
DICPCG:  Solving for p_rgh, Initial residual = 0.00138795, Final residual = 9.32519e-08, No Iterations 161
time step continuity errors : sum local = 1.26447e-09, global = -6.46804e-12, cumulative = -5.66944e-08
ExecutionTime = 0.42 s  ClockTime = 0 s

Courant Number mean: 0.0236096 max: 0.095397
Interface Courant Number mean: 0.00107288 max: 0.0925476
deltaT = 0.009375
Time = 0.240625

PIMPLE: iteration 1
smoothSolver:  Solving for alpha.water, Initial residual = 0.00116068, Final residual = 4.76269e-09, No Iterations 2
Phase-1 volume fraction = 0.90125  Min(alpha.water) = -1.84845e-20  Max(alpha.water) = 1
MULES: Correcting alpha.water
MULES: Correcting alpha.water
Phase-1 volume fraction = 0.90125  Min(alpha.water) = -3.07474e-11  Max(alpha.water) = 1
DICPCG:  Solving for p_rgh, Initial residual = 0.0591483, Final residual = 0.00249671, No Iterations 3
time step continuity errors : sum local = 3.40582e-05, global = 1.39291e-08, cumulative = -4.27653e-08
DICPCG:  Solving for p_rgh, Initial residual = 0.00368706, Final residual = 0.000162978, No Iterations 29
time step continuity errors : sum local = 2.17142e-06, global = 3.20301e-08, cumulative = -1.07352e-08
DICPCG:  Solving for p_rgh, Initial residual = 0.00150673, Final residual = 9.72109e-08, No Iterations 174
time step continuity errors : sum local = 1.29388e-09, global = 3.50405e-12, cumulative = -1.07317e-08
ExecutionTime = 0.43 s  ClockTime = 0 s

Courant Number mean: 0.0247424 max: 0.0990082
Interface Courant Number mean: 0.00118326 max: 0.0963564
deltaT = 0.009375
Time = 0.25

PIMPLE: iteration 1
smoothSolver:  Solving for alpha.water, Initial residual = 0.00120469, Final residual = 4.87854e-09, No Iterations 2
Phase-1 volume fraction = 0.90125  Min(alpha.water) = -1.70177e-20  Max(alpha.water) = 1
MULES: Correcting alpha.water
MULES: Correcting alpha.water
Phase-1 volume fraction = 0.90125  Min(alpha.water) = -3.62914e-11  Max(alpha.water) = 1
DICPCG:  Solving for p_rgh, Initial residual = 0.0640991, Final residual = 0.00277557, No Iterations 3
time step continuity errors : sum local = 3.72142e-05, global = -1.3544e-08, cumulative = -2.42756e-08
DICPCG:  Solving for p_rgh, Initial residual = 0.00411557, Final residual = 0.000191203, No Iterations 18
time step continuity errors : sum local = 2.50219e-06, global = -2.69311e-08, cumulative = -5.12067e-08
DICPCG:  Solving for p_rgh, Initial residual = 0.00162798, Final residual = 9.93205e-08, No Iterations 162
time step continuity errors : sum local = 1.29861e-09, global = -3.95402e-12, cumulative = -5.12106e-08
ExecutionTime = 0.45 s  ClockTime = 0 s

Courant Number mean: 0.0258736 max: 0.10258
Interface Courant Number mean: 0.00126813 max: 0.100273
deltaT = 0.01
Time = 0.26

PIMPLE: iteration 1
smoothSolver:  Solving for alpha.water, Initial residual = 0.00133108, Final residual = 6.27298e-09, No Iterations 2
Phase-1 volume fraction = 0.90125  Min(alpha.water) = -1.55267e-20  Max(alpha.water) = 1
MULES: Correcting alpha.water
MULES: Correcting alpha.water
Phase-1 volume fraction = 0.90125  Min(alpha.water) = -5.79653e-11  Max(alpha.water) = 1
DICPCG:  Solving for p_rgh, Initial residual = 0.0731266, Final residual = 0.00327583, No Iterations 3
time step continuity errors : sum local = 4.64292e-05, global = 1.24971e-08, cumulative = -3.87136e-08
DICPCG:  Solving for p_rgh, Initial residual = 0.00479594, Final residual = 0.000200989, No Iterations 29
time step continuity errors : sum local = 2.77615e-06, global = 2.95087e-08, cumulative = -9.20493e-09
DICPCG:  Solving for p_rgh, Initial residual = 0.00190112, Final residual = 9.10957e-08, No Iterations 175
time step continuity errors : sum local = 1.25653e-09, global = 5.36217e-12, cumulative = -9.19957e-09
ExecutionTime = 0.46 s  ClockTime = 0 s

Courant Number mean: 0.0288464 max: 0.113645
Interface Courant Number mean: 0.00143278 max: 0.111159
deltaT = 0.008
Time = 0.268

PIMPLE: iteration 1
smoothSolver:  Solving for alpha.water, Initial residual = 0.00110289, Final residual = 2.93808e-09, No Iterations 2
Phase-1 volume fraction = 0.90125  Min(alpha.water) = -1.43745e-20  Max(alpha.water) = 1
MULES: Correcting alpha.water
MULES: Correcting alpha.water
Phase-1 volume fraction = 0.90125  Min(alpha.water) = -3.81432e-11  Max(alpha.water) = 1
DICPCG:  Solving for p_rgh, Initial residual = 0.0628829, Final residual = 0.00287081, No Iterations 3
time step continuity errors : sum local = 3.1454e-05, global = -9.31739e-09, cumulative = -1.8517e-08
DICPCG:  Solving for p_rgh, Initial residual = 0.00417602, Final residual = 0.000195207, No Iterations 18
time step continuity errors : sum local = 2.09804e-06, global = -1.81342e-08, cumulative = -3.66512e-08
DICPCG:  Solving for p_rgh, Initial residual = 0.00159917, Final residual = 7.75926e-08, No Iterations 173
time step continuity errors : sum local = 8.33227e-10, global = 4.31254e-12, cumulative = -3.66469e-08
ExecutionTime = 0.47 s  ClockTime = 0 s

Courant Number mean: 0.0239188 max: 0.0941013
Interface Courant Number mean: 0.00119651 max: 0.0917136
deltaT = 0.008
Time = 0.276

PIMPLE: iteration 1
smoothSolver:  Solving for alpha.water, Initial residual = 0.00113429, Final residual = 2.99071e-09, No Iterations 2
Phase-1 volume fraction = 0.90125  Min(alpha.water) = -1.32732e-20  Max(alpha.water) = 1
MULES: Correcting alpha.water
MULES: Correcting alpha.water
Phase-1 volume fraction = 0.90125  Min(alpha.water) = -4.3173e-11  Max(alpha.water) = 1
DICPCG:  Solving for p_rgh, Initial residual = 0.0658081, Final residual = 0.0030925, No Iterations 3
time step continuity errors : sum local = 3.37319e-05, global = 7.15071e-09, cumulative = -2.94962e-08
DICPCG:  Solving for p_rgh, Initial residual = 0.00448141, Final residual = 0.00018897, No Iterations 29
time step continuity errors : sum local = 2.02427e-06, global = 1.71288e-08, cumulative = -1.23674e-08
DICPCG:  Solving for p_rgh, Initial residual = 0.00175143, Final residual = 9.26118e-08, No Iterations 176
time step continuity errors : sum local = 9.90889e-10, global = 5.55738e-12, cumulative = -1.23618e-08
ExecutionTime = 0.49 s  ClockTime = 0 s

Courant Number mean: 0.0247955 max: 0.0975862
Interface Courant Number mean: 0.00128493 max: 0.0945691
deltaT = 0.008
Time = 0.284

PIMPLE: iteration 1
smoothSolver:  Solving for alpha.water, Initial residual = 0.00116712, Final residual = 3.07365e-09, No Iterations 2
Phase-1 volume fraction = 0.90125  Min(alpha.water) = -1.2223e-20  Max(alpha.water) = 1
MULES: Correcting alpha.water
MULES: Correcting alpha.water
Phase-1 volume fraction = 0.90125  Min(alpha.water) = -6.3526e-11  Max(alpha.water) = 1
DICPCG:  Solving for p_rgh, Initial residual = 0.0683599, Final residual = 0.00334176, No Iterations 3
time step continuity errors : sum local = 3.65493e-05, global = -6.73887e-09, cumulative = -1.91007e-08
DICPCG:  Solving for p_rgh, Initial residual = 0.00487358, Final residual = 0.000215004, No Iterations 18
time step continuity errors : sum local = 2.31368e-06, global = -1.3413e-08, cumulative = -3.25137e-08
DICPCG:  Solving for p_rgh, Initial residual = 0.00184718, Final residual = 9.45841e-08, No Iterations 173
time step continuity errors : sum local = 1.01675e-09, global = 4.11006e-12, cumulative = -3.25096e-08
ExecutionTime = 0.5 s  ClockTime = 0 s

Courant Number mean: 0.0256578 max: 0.100885
Interface Courant Number mean: 0.00128268 max: 0.0973976
deltaT = 0.008
Time = 0.292

PIMPLE: iteration 1
smoothSolver:  Solving for alpha.water, Initial residual = 0.00120048, Final residual = 3.16273e-09, No Iterations 2
Phase-1 volume fraction = 0.90125  Min(alpha.water) = -1.12268e-20  Max(alpha.water) = 1
MULES: Correcting alpha.water
MULES: Correcting alpha.water
Phase-1 volume fraction = 0.90125  Min(alpha.water) = -8.65751e-11  Max(alpha.water) = 1
DICPCG:  Solving for p_rgh, Initial residual = 0.0675258, Final residual = 0.00214386, No Iterations 4
time step continuity errors : sum local = 2.35543e-05, global = 5.64557e-09, cumulative = -2.6864e-08
DICPCG:  Solving for p_rgh, Initial residual = 0.00321103, Final residual = 0.000153644, No Iterations 29
time step continuity errors : sum local = 1.65345e-06, global = 1.29472e-08, cumulative = -1.39168e-08
DICPCG:  Solving for p_rgh, Initial residual = 0.00136453, Final residual = 9.97603e-08, No Iterations 171
time step continuity errors : sum local = 1.07229e-09, global = 2.09086e-12, cumulative = -1.39147e-08
ExecutionTime = 0.51 s  ClockTime = 0 s

Courant Number mean: 0.026518 max: 0.104191
Interface Courant Number mean: 0.00130759 max: 0.100232
deltaT = 0.008
Time = 0.3

PIMPLE: iteration 1
smoothSolver:  Solving for alpha.water, Initial residual = 0.0012368, Final residual = 3.2821e-09, No Iterations 2
Phase-1 volume fraction = 0.90125  Min(alpha.water) = -1.02846e-20  Max(alpha.water) = 1
MULES: Correcting alpha.water
MULES: Correcting alpha.water
Phase-1 volume fraction = 0.90125  Min(alpha.water) = -1.16788e-10  Max(alpha.water) = 1
DICPCG:  Solving for p_rgh, Initial residual = 0.071207, Final residual = 0.00227141, No Iterations 4
time step continuity errors : sum local = 2.48927e-05, global = -5.41505e-09, cumulative = -1.93298e-08
DICPCG:  Solving for p_rgh, Initial residual = 0.00347517, Final residual = 0.000167746, No Iterations 18
time step continuity errors : sum local = 1.79872e-06, global = -1.02382e-08, cumulative = -2.9568e-08
DICPCG:  Solving for p_rgh, Initial residual = 0.00143573, Final residual = 8.32619e-08, No Iterations 173
time step continuity errors : sum local = 8.91899e-10, global = 4.22436e-12, cumulative = -2.95638e-08
ExecutionTime = 0.53 s  ClockTime = 0 s

Courant Number mean: 0.0273704 max: 0.107631
Interface Courant Number mean: 0.00135278 max: 0.107218
deltaT = 0.00714286
Time = 0.307143

PIMPLE: iteration 1
smoothSolver:  Solving for alpha.water, Initial residual = 0.00113628, Final residual = 2.21199e-09, No Iterations 2
Phase-1 volume fraction = 0.90125  Min(alpha.water) = -9.4853e-21  Max(alpha.water) = 1
MULES: Correcting alpha.water
MULES: Correcting alpha.water
Phase-1 volume fraction = 0.90125  Min(alpha.water) = -1.2589e-10  Max(alpha.water) = 1
DICPCG:  Solving for p_rgh, Initial residual = 0.0649765, Final residual = 0.0032301, No Iterations 3
time step continuity errors : sum local = 3.12826e-05, global = 3.38813e-09, cumulative = -2.61756e-08
DICPCG:  Solving for p_rgh, Initial residual = 0.00469401, Final residual = 0.000211357, No Iterations 29
time step continuity errors : sum local = 2.0063e-06, global = 8.56706e-09, cumulative = -1.76086e-08
DICPCG:  Solving for p_rgh, Initial residual = 0.00181353, Final residual = 9.72017e-08, No Iterations 173
time step continuity errors : sum local = 9.21693e-10, global = 1.50353e-13, cumulative = -1.76084e-08
ExecutionTime = 0.54 s  ClockTime = 0 s

Courant Number mean: 0.0251361 max: 0.0994377
Interface Courant Number mean: 0.00124351 max: 0.0981847
deltaT = 0.00714286
Time = 0.314286

PIMPLE: iteration 1
smoothSolver:  Solving for alpha.water, Initial residual = 0.00116509, Final residual = 2.30147e-09, No Iterations 2
Phase-1 volume fraction = 0.90125  Min(alpha.water) = -8.72995e-21  Max(alpha.water) = 1
MULES: Correcting alpha.water
MULES: Correcting alpha.water
Phase-1 volume fraction = 0.90125  Min(alpha.water) = -1.24246e-10  Max(alpha.water) = 1
DICPCG:  Solving for p_rgh, Initial residual = 0.0669978, Final residual = 0.00217544, No Iterations 4
time step continuity errors : sum local = 2.09443e-05, global = -3.38305e-09, cumulative = -2.09915e-08
DICPCG:  Solving for p_rgh, Initial residual = 0.00334616, Final residual = 0.000121186, No Iterations 19
time step continuity errors : sum local = 1.14268e-06, global = -6.26462e-09, cumulative = -2.72561e-08
DICPCG:  Solving for p_rgh, Initial residual = 0.00134463, Final residual = 9.34323e-08, No Iterations 173
time step continuity errors : sum local = 8.80221e-10, global = 4.31743e-12, cumulative = -2.72518e-08
ExecutionTime = 0.55 s  ClockTime = 0 s

Courant Number mean: 0.0258434 max: 0.102871
Interface Courant Number mean: 0.0012624 max: 0.100628
deltaT = 0.00714286
Time = 0.321429

PIMPLE: iteration 1
smoothSolver:  Solving for alpha.water, Initial residual = 0.00119365, Final residual = 2.4095e-09, No Iterations 2
Phase-1 volume fraction = 0.90125  Min(alpha.water) = -8.01814e-21  Max(alpha.water) = 1
MULES: Correcting alpha.water
MULES: Correcting alpha.water
Phase-1 volume fraction = 0.90125  Min(alpha.water) = -1.34226e-10  Max(alpha.water) = 1
DICPCG:  Solving for p_rgh, Initial residual = 0.0705653, Final residual = 0.00338903, No Iterations 3
time step continuity errors : sum local = 3.24439e-05, global = 2.30666e-09, cumulative = -2.49451e-08
DICPCG:  Solving for p_rgh, Initial residual = 0.00491558, Final residual = 0.00024011, No Iterations 29
time step continuity errors : sum local = 2.24911e-06, global = 5.93512e-09, cumulative = -1.901e-08
DICPCG:  Solving for p_rgh, Initial residual = 0.00191674, Final residual = 8.59068e-08, No Iterations 173
time step continuity errors : sum local = 8.03778e-10, global = -9.92707e-13, cumulative = -1.9011e-08
ExecutionTime = 0.57 s  ClockTime = 0 s

Courant Number mean: 0.0265442 max: 0.106091
Interface Courant Number mean: 0.00127455 max: 0.102959
deltaT = 0.00714286
Time = 0.328571

PIMPLE: iteration 1
smoothSolver:  Solving for alpha.water, Initial residual = 0.00122204, Final residual = 2.5381e-09, No Iterations 2
Phase-1 volume fraction = 0.90125  Min(alpha.water) = -7.34908e-21  Max(alpha.water) = 1
MULES: Correcting alpha.water
MULES: Correcting alpha.water
Phase-1 volume fraction = 0.90125  Min(alpha.water) = -1.53758e-10  Max(alpha.water) = 1
DICPCG:  Solving for p_rgh, Initial residual = 0.0714581, Final residual = 0.0034031, No Iterations 3
time step continuity errors : sum local = 3.26269e-05, global = -2.17647e-09, cumulative = -2.11874e-08
DICPCG:  Solving for p_rgh, Initial residual = 0.00499033, Final residual = 0.000192332, No Iterations 18
time step continuity errors : sum local = 1.8105e-06, global = -4.36842e-09, cumulative = -2.55559e-08
DICPCG:  Solving for p_rgh, Initial residual = 0.00184341, Final residual = 9.70448e-08, No Iterations 174
time step continuity errors : sum local = 9.12471e-10, global = 3.00128e-12, cumulative = -2.55529e-08
ExecutionTime = 0.58 s  ClockTime = 0 s

Courant Number mean: 0.0272408 max: 0.108987
Interface Courant Number mean: 0.0013368 max: 0.105282
deltaT = 0.00714286
Time = 0.335714

PIMPLE: iteration 1
smoothSolver:  Solving for alpha.water, Initial residual = 0.00125038, Final residual = 2.68577e-09, No Iterations 2
Phase-1 volume fraction = 0.90125  Min(alpha.water) = -6.72254e-21  Max(alpha.water) = 1
MULES: Correcting alpha.water
MULES: Correcting alpha.water
Phase-1 volume fraction = 0.90125  Min(alpha.water) = -1.78134e-10  Max(alpha.water) = 1
DICPCG:  Solving for p_rgh, Initial residual = 0.0754092, Final residual = 0.00322327, No Iterations 3
time step continuity errors : sum local = 3.09005e-05, global = 1.60971e-09, cumulative = -2.39431e-08
DICPCG:  Solving for p_rgh, Initial residual = 0.004723, Final residual = 0.000215544, No Iterations 29
time step continuity errors : sum local = 2.02686e-06, global = 4.71293e-09, cumulative = -1.92302e-08
DICPCG:  Solving for p_rgh, Initial residual = 0.0018141, Final residual = 9.2935e-08, No Iterations 172
time step continuity errors : sum local = 8.72976e-10, global = -8.78147e-13, cumulative = -1.92311e-08
ExecutionTime = 0.59 s  ClockTime = 0 s

Courant Number mean: 0.0279327 max: 0.111434
Interface Courant Number mean: 0.00140968 max: 0.109445
deltaT = 0.00714286
Time = 0.342857

PIMPLE: iteration 1
smoothSolver:  Solving for alpha.water, Initial residual = 0.00127858, Final residual = 2.85966e-09, No Iterations 2
Phase-1 volume fraction = 0.90125  Min(alpha.water) = -6.1357e-21  Max(alpha.water) = 1
MULES: Correcting alpha.water
MULES: Correcting alpha.water
Phase-1 volume fraction = 0.90125  Min(alpha.water) = -6.09177e-10  Max(alpha.water) = 1
DICPCG:  Solving for p_rgh, Initial residual = 0.0771987, Final residual = 0.00361224, No Iterations 3
time step continuity errors : sum local = 3.51302e-05, global = -1.73516e-09, cumulative = -2.09662e-08
DICPCG:  Solving for p_rgh, Initial residual = 0.00530087, Final residual = 0.00019244, No Iterations 18
time step continuity errors : sum local = 1.83655e-06, global = -3.54809e-09, cumulative = -2.45143e-08
DICPCG:  Solving for p_rgh, Initial residual = 0.00192219, Final residual = 9.71936e-08, No Iterations 174
time step continuity errors : sum local = 9.26446e-10, global = 3.00501e-12, cumulative = -2.45113e-08
ExecutionTime = 0.6 s  ClockTime = 0 s

Courant Number mean: 0.02862 max: 0.114283
Interface Courant Number mean: 0.00137158 max: 0.111793
deltaT = 0.00714286
Time = 0.35

PIMPLE: iteration 1
smoothSolver:  Solving for alpha.water, Initial residual = 0.00130856, Final residual = 3.21151e-09, No Iterations 2
Phase-1 volume fraction = 0.90125  Min(alpha.water) = -5.58794e-21  Max(alpha.water) = 1
MULES: Correcting alpha.water
MULES: Correcting alpha.water
Phase-1 volume fraction = 0.90125  Min(alpha.water) = -4.63094e-10  Max(alpha.water) = 1
DICPCG:  Solving for p_rgh, Initial residual = 0.0750962, Final residual = 0.00312089, No Iterations 3
time step continuity errors : sum local = 3.04929e-05, global = 1.31433e-09, cumulative = -2.3197e-08
DICPCG:  Solving for p_rgh, Initial residual = 0.00460573, Final residual = 0.000198838, No Iterations 29
time step continuity errors : sum local = 1.89987e-06, global = 4.32663e-09, cumulative = -1.88704e-08
DICPCG:  Solving for p_rgh, Initial residual = 0.00176235, Final residual = 8.95101e-08, No Iterations 172
time step continuity errors : sum local = 8.54424e-10, global = -5.53903e-13, cumulative = -1.88709e-08
ExecutionTime = 0.63 s  ClockTime = 0 s

Courant Number mean: 0.0293033 max: 0.117597
Interface Courant Number mean: 0.00137936 max: 0.114161
deltaT = 0.00625
Time = 0.35625

PIMPLE: iteration 1
smoothSolver:  Solving for alpha.water, Initial residual = 0.00117275, Final residual = 2.18963e-09, No Iterations 2
Phase-1 volume fraction = 0.90125  Min(alpha.water) = -5.13588e-21  Max(alpha.water) = 1
MULES: Correcting alpha.water
MULES: Correcting alpha.water
Phase-1 volume fraction = 0.90125  Min(alpha.water) = -6.92048e-10  Max(alpha.water) = 1
DICPCG:  Solving for p_rgh, Initial residual = 0.0658881, Final residual = 0.00286409, No Iterations 3
time step continuity errors : sum local = 2.42435e-05, global = -1.3126e-09, cumulative = -2.01835e-08
DICPCG:  Solving for p_rgh, Initial residual = 0.00417083, Final residual = 0.000154707, No Iterations 18
time step continuity errors : sum local = 1.28872e-06, global = -2.62571e-09, cumulative = -2.28092e-08
DICPCG:  Solving for p_rgh, Initial residual = 0.00153308, Final residual = 7.81324e-08, No Iterations 174
time step continuity errors : sum local = 6.50171e-10, global = 2.68895e-12, cumulative = -2.28066e-08
ExecutionTime = 0.65 s  ClockTime = 0 s

Courant Number mean: 0.0261786 max: 0.105596
Interface Courant Number mean: 0.00127288 max: 0.101733
deltaT = 0.00625
Time = 0.3625

PIMPLE: iteration 1
smoothSolver:  Solving for alpha.water, Initial residual = 0.00119666, Final residual = 2.48905e-09, No Iterations 2
Phase-1 volume fraction = 0.90125  Min(alpha.water) = -4.71229e-21  Max(alpha.water) = 1
MULES: Correcting alpha.water
MULES: Correcting alpha.water
Phase-1 volume fraction = 0.90125  Min(alpha.water) = -8.78732e-10  Max(alpha.water) = 1
DICPCG:  Solving for p_rgh, Initial residual = 0.0683314, Final residual = 0.00253372, No Iterations 3
time step continuity errors : sum local = 2.14428e-05, global = 9.13138e-10, cumulative = -2.18934e-08
DICPCG:  Solving for p_rgh, Initial residual = 0.00372545, Final residual = 0.000149805, No Iterations 29
time step continuity errors : sum local = 1.2431e-06, global = 3.16424e-09, cumulative = -1.87292e-08
DICPCG:  Solving for p_rgh, Initial residual = 0.00143456, Final residual = 8.82493e-08, No Iterations 172
time step continuity errors : sum local = 7.31742e-10, global = -1.44583e-13, cumulative = -1.87293e-08
ExecutionTime = 0.66 s  ClockTime = 0 s

Courant Number mean: 0.0267257 max: 0.108349
Interface Courant Number mean: 0.00132997 max: 0.104347
deltaT = 0.00535714
Time = 0.367857

PIMPLE: iteration 1
smoothSolver:  Solving for alpha.water, Initial residual = 0.0010461, Final residual = 1.55524e-09, No Iterations 2
Phase-1 volume fraction = 0.90125  Min(alpha.water) = -4.3682e-21  Max(alpha.water) = 1
MULES: Correcting alpha.water
MULES: Correcting alpha.water
Phase-1 volume fraction = 0.90125  Min(alpha.water) = -8.02198e-10  Max(alpha.water) = 1
DICPCG:  Solving for p_rgh, Initial residual = 0.0597928, Final residual = 0.00250637, No Iterations 3
time step continuity errors : sum local = 1.79418e-05, global = -8.67635e-10, cumulative = -1.9597e-08
DICPCG:  Solving for p_rgh, Initial residual = 0.00365785, Final residual = 0.000134735, No Iterations 18
time step continuity errors : sum local = 9.50291e-07, global = -1.70881e-09, cumulative = -2.13058e-08
DICPCG:  Solving for p_rgh, Initial residual = 0.00132719, Final residual = 7.22776e-08, No Iterations 174
time step continuity errors : sum local = 5.09375e-10, global = 2.39089e-12, cumulative = -2.13034e-08
ExecutionTime = 0.67 s  ClockTime = 0 s

Courant Number mean: 0.0233189 max: 0.0949992
Interface Courant Number mean: 0.0011327 max: 0.0908184
deltaT = 0.00535714
Time = 0.373214

PIMPLE: iteration 1
smoothSolver:  Solving for alpha.water, Initial residual = 0.00106452, Final residual = 1.71928e-09, No Iterations 2
Phase-1 volume fraction = 0.90125  Min(alpha.water) = -4.04402e-21  Max(alpha.water) = 1
MULES: Correcting alpha.water
MULES: Correcting alpha.water
Phase-1 volume fraction = 0.90125  Min(alpha.water) = -9.10353e-10  Max(alpha.water) = 1
DICPCG:  Solving for p_rgh, Initial residual = 0.0611758, Final residual = 0.0023169, No Iterations 3
time step continuity errors : sum local = 1.66227e-05, global = 5.45337e-10, cumulative = -2.0758e-08
DICPCG:  Solving for p_rgh, Initial residual = 0.00334884, Final residual = 0.000137605, No Iterations 29
time step continuity errors : sum local = 9.70617e-07, global = 1.84708e-09, cumulative = -1.8911e-08
DICPCG:  Solving for p_rgh, Initial residual = 0.00127283, Final residual = 7.95985e-08, No Iterations 172
time step continuity errors : sum local = 5.61141e-10, global = -6.95659e-14, cumulative = -1.8911e-08
ExecutionTime = 0.68 s  ClockTime = 0 s

Courant Number mean: 0.0237376 max: 0.0971922
Interface Courant Number mean: 0.00113688 max: 0.0922215
deltaT = 0.00535714
Time = 0.378571

PIMPLE: iteration 1
smoothSolver:  Solving for alpha.water, Initial residual = 0.00108262, Final residual = 1.89128e-09, No Iterations 2
Phase-1 volume fraction = 0.90125  Min(alpha.water) = -3.73874e-21  Max(alpha.water) = 1
MULES: Correcting alpha.water
MULES: Correcting alpha.water
Phase-1 volume fraction = 0.90125  Min(alpha.water) = -1.11521e-09  Max(alpha.water) = 1
DICPCG:  Solving for p_rgh, Initial residual = 0.0592635, Final residual = 0.0025764, No Iterations 3
time step continuity errors : sum local = 1.85308e-05, global = -5.87218e-10, cumulative = -1.94982e-08
DICPCG:  Solving for p_rgh, Initial residual = 0.00378289, Final residual = 0.000138984, No Iterations 18
time step continuity errors : sum local = 9.80543e-07, global = -1.17977e-09, cumulative = -2.0678e-08
DICPCG:  Solving for p_rgh, Initial residual = 0.0013606, Final residual = 7.43086e-08, No Iterations 174
time step continuity errors : sum local = 5.23841e-10, global = 1.86776e-12, cumulative = -2.06761e-08
ExecutionTime = 0.69 s  ClockTime = 0 s

Courant Number mean: 0.0241507 max: 0.099325
Interface Courant Number mean: 0.00119145 max: 0.0935437
deltaT = 0.00535714
Time = 0.383929

PIMPLE: iteration 1
smoothSolver:  Solving for alpha.water, Initial residual = 0.00110014, Final residual = 2.06801e-09, No Iterations 2
Phase-1 volume fraction = 0.90125  Min(alpha.water) = -3.45208e-21  Max(alpha.water) = 1
MULES: Correcting alpha.water
MULES: Correcting alpha.water
Phase-1 volume fraction = 0.90125  Min(alpha.water) = -1.33229e-09  Max(alpha.water) = 1
DICPCG:  Solving for p_rgh, Initial residual = 0.0627209, Final residual = 0.00235383, No Iterations 3
time step continuity errors : sum local = 1.67041e-05, global = 3.76909e-10, cumulative = -2.02992e-08
DICPCG:  Solving for p_rgh, Initial residual = 0.00339208, Final residual = 0.000146279, No Iterations 29
time step continuity errors : sum local = 1.01506e-06, global = 1.27707e-09, cumulative = -1.90222e-08
DICPCG:  Solving for p_rgh, Initial residual = 0.00129012, Final residual = 8.22545e-08, No Iterations 172
time step continuity errors : sum local = 5.70464e-10, global = -1.95862e-13, cumulative = -1.90224e-08
ExecutionTime = 0.7 s  ClockTime = 0 s

Courant Number mean: 0.0245629 max: 0.101472
Interface Courant Number mean: 0.00116978 max: 0.0948369
deltaT = 0.00535714
Time = 0.389286

PIMPLE: iteration 1
smoothSolver:  Solving for alpha.water, Initial residual = 0.00111724, Final residual = 2.25015e-09, No Iterations 2
Phase-1 volume fraction = 0.90125  Min(alpha.water) = -3.18315e-21  Max(alpha.water) = 1
MULES: Correcting alpha.water
MULES: Correcting alpha.water
Phase-1 volume fraction = 0.90125  Min(alpha.water) = -1.57589e-09  Max(alpha.water) = 1
DICPCG:  Solving for p_rgh, Initial residual = 0.0621125, Final residual = 0.00265101, No Iterations 3
time step continuity errors : sum local = 1.87501e-05, global = -4.07174e-10, cumulative = -1.94295e-08
DICPCG:  Solving for p_rgh, Initial residual = 0.00390955, Final residual = 0.000144517, No Iterations 18
time step continuity errors : sum local = 9.99042e-07, global = -8.11824e-10, cumulative = -2.02414e-08
DICPCG:  Solving for p_rgh, Initial residual = 0.00140385, Final residual = 7.86985e-08, No Iterations 174
time step continuity errors : sum local = 5.43566e-10, global = 1.86693e-12, cumulative = -2.02395e-08
ExecutionTime = 0.72 s  ClockTime = 0 s

Courant Number mean: 0.0249716 max: 0.103585
Interface Courant Number mean: 0.00117301 max: 0.0961273
deltaT = 0.00535714
Time = 0.394643

PIMPLE: iteration 1
smoothSolver:  Solving for alpha.water, Initial residual = 0.00113416, Final residual = 2.43858e-09, No Iterations 2
Phase-1 volume fraction = 0.90125  Min(alpha.water) = -2.93147e-21  Max(alpha.water) = 1
MULES: Correcting alpha.water
MULES: Correcting alpha.water
Phase-1 volume fraction = 0.90125  Min(alpha.water) = -1.85051e-09  Max(alpha.water) = 1
DICPCG:  Solving for p_rgh, Initial residual = 0.0650442, Final residual = 0.00237886, No Iterations 3
time step continuity errors : sum local = 1.65391e-05, global = 2.64815e-10, cumulative = -1.99747e-08
DICPCG:  Solving for p_rgh, Initial residual = 0.00339233, Final residual = 0.000138368, No Iterations 29
time step continuity errors : sum local = 9.43096e-07, global = 1.00724e-09, cumulative = -1.89674e-08
DICPCG:  Solving for p_rgh, Initial residual = 0.00128747, Final residual = 8.7344e-08, No Iterations 172
time step continuity errors : sum local = 5.94992e-10, global = 1.99953e-13, cumulative = -1.89672e-08
ExecutionTime = 0.73 s  ClockTime = 1 s

Courant Number mean: 0.0253782 max: 0.105696
Interface Courant Number mean: 0.00124385 max: 0.0984663
deltaT = 0.00535714
Time = 0.4

PIMPLE: iteration 1
smoothSolver:  Solving for alpha.water, Initial residual = 0.00115106, Final residual = 2.63271e-09, No Iterations 2
Phase-1 volume fraction = 0.90125  Min(alpha.water) = -2.69617e-21  Max(alpha.water) = 1
MULES: Correcting alpha.water
MULES: Correcting alpha.water
Phase-1 volume fraction = 0.90125  Min(alpha.water) = -2.1623e-09  Max(alpha.water) = 1
DICPCG:  Solving for p_rgh, Initial residual = 0.0667159, Final residual = 0.00276123, No Iterations 3
time step continuity errors : sum local = 1.9143e-05, global = -3.23037e-10, cumulative = -1.92903e-08
DICPCG:  Solving for p_rgh, Initial residual = 0.00404501, Final residual = 0.000154203, No Iterations 18
time step continuity errors : sum local = 1.0489e-06, global = -6.45685e-10, cumulative = -1.9936e-08
DICPCG:  Solving for p_rgh, Initial residual = 0.00145367, Final residual = 8.39717e-08, No Iterations 174
time step continuity errors : sum local = 5.7074e-10, global = 1.79547e-12, cumulative = -1.99342e-08
ExecutionTime = 0.75 s  ClockTime = 1 s

Courant Number mean: 0.0257821 max: 0.107798
Interface Courant Number mean: 0.00128532 max: 0.099953
deltaT = 0.005
Time = 0.405

PIMPLE: iteration 1
smoothSolver:  Solving for alpha.water, Initial residual = 0.00109077, Final residual = 2.1953e-09, No Iterations 2
Phase-1 volume fraction = 0.90125  Min(alpha.water) = -2.49025e-21  Max(alpha.water) = 1
MULES: Correcting alpha.water
MULES: Correcting alpha.water
Phase-1 volume fraction = 0.90125  Min(alpha.water) = -2.06579e-09  Max(alpha.water) = 1
DICPCG:  Solving for p_rgh, Initial residual = 0.0644812, Final residual = 0.00241538, No Iterations 3
time step continuity errors : sum local = 1.53779e-05, global = 1.89119e-10, cumulative = -1.9745e-08
DICPCG:  Solving for p_rgh, Initial residual = 0.00344113, Final residual = 0.00014077, No Iterations 29
time step continuity errors : sum local = 8.78385e-07, global = 7.82843e-10, cumulative = -1.89622e-08
DICPCG:  Solving for p_rgh, Initial residual = 0.00129704, Final residual = 9.53276e-08, No Iterations 171
time step continuity errors : sum local = 5.94474e-10, global = 2.47566e-13, cumulative = -1.8962e-08
ExecutionTime = 0.76 s  ClockTime = 1 s

Courant Number mean: 0.0244178 max: 0.102491
Interface Courant Number mean: 0.00123113 max: 0.0945685
deltaT = 0.005
Time = 0.41

PIMPLE: iteration 1
smoothSolver:  Solving for alpha.water, Initial residual = 0.00110604, Final residual = 2.34526e-09, No Iterations 2
Phase-1 volume fraction = 0.90125  Min(alpha.water) = -2.29749e-21  Max(alpha.water) = 1
MULES: Correcting alpha.water
MULES: Correcting alpha.water
Phase-1 volume fraction = 0.90125  Min(alpha.water) = -2.28623e-09  Max(alpha.water) = 1
DICPCG:  Solving for p_rgh, Initial residual = 0.0656687, Final residual = 0.00277811, No Iterations 3
time step continuity errors : sum local = 1.76978e-05, global = -2.42516e-10, cumulative = -1.92045e-08
DICPCG:  Solving for p_rgh, Initial residual = 0.00408378, Final residual = 0.000200745, No Iterations 17
time step continuity errors : sum local = 1.25271e-06, global = -4.44799e-10, cumulative = -1.96493e-08
DICPCG:  Solving for p_rgh, Initial residual = 0.00147928, Final residual = 9.23295e-08, No Iterations 174
time step continuity errors : sum local = 5.75702e-10, global = 1.44221e-12, cumulative = -1.96478e-08
ExecutionTime = 0.77 s  ClockTime = 1 s

Courant Number mean: 0.0247734 max: 0.10438
Interface Courant Number mean: 0.00118386 max: 0.0958057
deltaT = 0.005
Time = 0.415

PIMPLE: iteration 1
smoothSolver:  Solving for alpha.water, Initial residual = 0.00112123, Final residual = 2.50018e-09, No Iterations 2
Phase-1 volume fraction = 0.90125  Min(alpha.water) = -2.11742e-21  Max(alpha.water) = 1
MULES: Correcting alpha.water
MULES: Correcting alpha.water
Phase-1 volume fraction = 0.90125  Min(alpha.water) = -2.62012e-09  Max(alpha.water) = 1
DICPCG:  Solving for p_rgh, Initial residual = 0.0664298, Final residual = 0.00247603, No Iterations 3
time step continuity errors : sum local = 1.57334e-05, global = 1.44826e-10, cumulative = -1.9503e-08
DICPCG:  Solving for p_rgh, Initial residual = 0.0035133, Final residual = 0.000135765, No Iterations 29
time step continuity errors : sum local = 8.44034e-07, global = 6.15571e-10, cumulative = -1.88874e-08
DICPCG:  Solving for p_rgh, Initial residual = 0.00133954, Final residual = 8.91542e-08, No Iterations 171
time step continuity errors : sum local = 5.53892e-10, global = 2.61071e-13, cumulative = -1.88872e-08
ExecutionTime = 0.79 s  ClockTime = 1 s

Courant Number mean: 0.0251253 max: 0.106242
Interface Courant Number mean: 0.00121134 max: 0.0970278
deltaT = 0.005
Time = 0.42

PIMPLE: iteration 1
smoothSolver:  Solving for alpha.water, Initial residual = 0.00113594, Final residual = 2.65724e-09, No Iterations 2
Phase-1 volume fraction = 0.90125  Min(alpha.water) = -1.9493e-21  Max(alpha.water) = 1
MULES: Correcting alpha.water
MULES: Correcting alpha.water
Phase-1 volume fraction = 0.90125  Min(alpha.water) = -2.9841e-09  Max(alpha.water) = 1
DICPCG:  Solving for p_rgh, Initial residual = 0.0681823, Final residual = 0.00274262, No Iterations 3
time step continuity errors : sum local = 1.73459e-05, global = -1.94298e-10, cumulative = -1.90815e-08
DICPCG:  Solving for p_rgh, Initial residual = 0.0040135, Final residual = 0.000180348, No Iterations 17
time step continuity errors : sum local = 1.11393e-06, global = -3.54161e-10, cumulative = -1.94356e-08
DICPCG:  Solving for p_rgh, Initial residual = 0.00145773, Final residual = 9.12585e-08, No Iterations 174
time step continuity errors : sum local = 5.63356e-10, global = 1.44561e-12, cumulative = -1.94342e-08
ExecutionTime = 0.8 s  ClockTime = 1 s

Courant Number mean: 0.025476 max: 0.108098
Interface Courant Number mean: 0.00124098 max: 0.100836
deltaT = 0.005
Time = 0.425

PIMPLE: iteration 1
smoothSolver:  Solving for alpha.water, Initial residual = 0.00114994, Final residual = 2.81766e-09, No Iterations 2
Phase-1 volume fraction = 0.90125  Min(alpha.water) = -1.79271e-21  Max(alpha.water) = 1
MULES: Correcting alpha.water
MULES: Correcting alpha.water
Phase-1 volume fraction = 0.90125  Min(alpha.water) = -3.38986e-09  Max(alpha.water) = 1
DICPCG:  Solving for p_rgh, Initial residual = 0.0699646, Final residual = 0.00257973, No Iterations 3
time step continuity errors : sum local = 1.62327e-05, global = 1.2014e-10, cumulative = -1.9314e-08
DICPCG:  Solving for p_rgh, Initial residual = 0.00364469, Final residual = 0.000145948, No Iterations 29
time step continuity errors : sum local = 8.99281e-07, global = 5.7362e-10, cumulative = -1.87404e-08
DICPCG:  Solving for p_rgh, Initial residual = 0.00139477, Final residual = 9.69502e-08, No Iterations 170
time step continuity errors : sum local = 5.96887e-10, global = 1.56417e-13, cumulative = -1.87403e-08
ExecutionTime = 0.81 s  ClockTime = 1 s

Courant Number mean: 0.0258241 max: 0.109936
Interface Courant Number mean: 0.00124193 max: 0.102041
deltaT = 0.005
Time = 0.43

PIMPLE: iteration 1
smoothSolver:  Solving for alpha.water, Initial residual = 0.00116355, Final residual = 2.98052e-09, No Iterations 2
Phase-1 volume fraction = 0.90125  Min(alpha.water) = -1.6469e-21  Max(alpha.water) = 1
MULES: Correcting alpha.water
MULES: Correcting alpha.water
Phase-1 volume fraction = 0.90125  Min(alpha.water) = -3.83262e-09  Max(alpha.water) = 1
DICPCG:  Solving for p_rgh, Initial residual = 0.0709658, Final residual = 0.0028029, No Iterations 3
time step continuity errors : sum local = 1.76547e-05, global = -1.84171e-10, cumulative = -1.89244e-08
DICPCG:  Solving for p_rgh, Initial residual = 0.00409001, Final residual = 0.000190136, No Iterations 17
time step continuity errors : sum local = 1.17127e-06, global = -3.18624e-10, cumulative = -1.92431e-08
DICPCG:  Solving for p_rgh, Initial residual = 0.00148065, Final residual = 9.54273e-08, No Iterations 174
time step continuity errors : sum local = 5.87481e-10, global = 1.87645e-12, cumulative = -1.92412e-08
ExecutionTime = 0.82 s  ClockTime = 1 s

Courant Number mean: 0.0261712 max: 0.111765
Interface Courant Number mean: 0.00123965 max: 0.103234
deltaT = 0.005
Time = 0.435

PIMPLE: iteration 1
smoothSolver:  Solving for alpha.water, Initial residual = 0.00117809, Final residual = 3.14756e-09, No Iterations 2
Phase-1 volume fraction = 0.90125  Min(alpha.water) = -1.51142e-21  Max(alpha.water) = 1
MULES: Correcting alpha.water
MULES: Correcting alpha.water
Phase-1 volume fraction = 0.90125  Min(alpha.water) = -4.32427e-09  Max(alpha.water) = 1
DICPCG:  Solving for p_rgh, Initial residual = 0.0731975, Final residual = 0.00258555, No Iterations 3
time step continuity errors : sum local = 1.61731e-05, global = 1.13059e-10, cumulative = -1.91281e-08
DICPCG:  Solving for p_rgh, Initial residual = 0.00367434, Final residual = 0.000144872, No Iterations 29
time step continuity errors : sum local = 8.90433e-07, global = 5.87388e-10, cumulative = -1.85407e-08
DICPCG:  Solving for p_rgh, Initial residual = 0.00139056, Final residual = 9.32521e-08, No Iterations 163
time step continuity errors : sum local = 5.72693e-10, global = -2.70672e-12, cumulative = -1.85434e-08
ExecutionTime = 0.83 s  ClockTime = 1 s

Courant Number mean: 0.0265153 max: 0.113576
Interface Courant Number mean: 0.00126052 max: 0.104433
deltaT = 0.005
Time = 0.44

PIMPLE: iteration 1
smoothSolver:  Solving for alpha.water, Initial residual = 0.00119337, Final residual = 3.31874e-09, No Iterations 2
Phase-1 volume fraction = 0.90125  Min(alpha.water) = -1.38551e-21  Max(alpha.water) = 1
MULES: Correcting alpha.water
MULES: Correcting alpha.water
Phase-1 volume fraction = 0.90125  Min(alpha.water) = -4.86066e-09  Max(alpha.water) = 1
DICPCG:  Solving for p_rgh, Initial residual = 0.0734541, Final residual = 0.00283566, No Iterations 3
time step continuity errors : sum local = 1.80061e-05, global = -1.98432e-10, cumulative = -1.87419e-08
DICPCG:  Solving for p_rgh, Initial residual = 0.00412457, Final residual = 0.000200174, No Iterations 17
time step continuity errors : sum local = 1.25331e-06, global = -3.31389e-10, cumulative = -1.90733e-08
DICPCG:  Solving for p_rgh, Initial residual = 0.00150863, Final residual = 8.50556e-08, No Iterations 175
time step continuity errors : sum local = 5.32098e-10, global = 2.02814e-12, cumulative = -1.90712e-08
ExecutionTime = 0.84 s  ClockTime = 1 s

Courant Number mean: 0.0268581 max: 0.115376
Interface Courant Number mean: 0.00128446 max: 0.107046
deltaT = 0.005
Time = 0.445

PIMPLE: iteration 1
smoothSolver:  Solving for alpha.water, Initial residual = 0.00120846, Final residual = 3.49491e-09, No Iterations 2
Phase-1 volume fraction = 0.90125  Min(alpha.water) = -1.26873e-21  Max(alpha.water) = 1
MULES: Correcting alpha.water
MULES: Correcting alpha.water
Phase-1 volume fraction = 0.90125  Min(alpha.water) = -5.45314e-09  Max(alpha.water) = 1
DICPCG:  Solving for p_rgh, Initial residual = 0.0741202, Final residual = 0.00243847, No Iterations 3
time step continuity errors : sum local = 1.55924e-05, global = 1.25293e-10, cumulative = -1.89459e-08
DICPCG:  Solving for p_rgh, Initial residual = 0.00349903, Final residual = 0.000168258, No Iterations 28
time step continuity errors : sum local = 1.05794e-06, global = 6.41466e-10, cumulative = -1.83045e-08
DICPCG:  Solving for p_rgh, Initial residual = 0.00132766, Final residual = 9.66724e-08, No Iterations 164
time step continuity errors : sum local = 6.07333e-10, global = -1.18887e-12, cumulative = -1.83057e-08
ExecutionTime = 0.85 s  ClockTime = 1 s

Courant Number mean: 0.0271976 max: 0.117157
Interface Courant Number mean: 0.00132048 max: 0.108242
deltaT = 0.005
Time = 0.45

PIMPLE: iteration 1
smoothSolver:  Solving for alpha.water, Initial residual = 0.00122286, Final residual = 3.67469e-09, No Iterations 2
Phase-1 volume fraction = 0.90125  Min(alpha.water) = -1.16045e-21  Max(alpha.water) = 1
MULES: Correcting alpha.water
MULES: Correcting alpha.water
Phase-1 volume fraction = 0.90125  Min(alpha.water) = -6.09788e-09  Max(alpha.water) = 1
DICPCG:  Solving for p_rgh, Initial residual = 0.0759235, Final residual = 0.00277188, No Iterations 3
time step continuity errors : sum local = 1.79132e-05, global = -2.20957e-10, cumulative = -1.85266e-08
DICPCG:  Solving for p_rgh, Initial residual = 0.00407155, Final residual = 0.000200144, No Iterations 17
time step continuity errors : sum local = 1.2706e-06, global = -3.52469e-10, cumulative = -1.88791e-08
DICPCG:  Solving for p_rgh, Initial residual = 0.00151663, Final residual = 9.30336e-08, No Iterations 175
time step continuity errors : sum local = 5.90112e-10, global = 2.24314e-12, cumulative = -1.88769e-08
ExecutionTime = 0.87 s  ClockTime = 1 s

Courant Number mean: 0.0275356 max: 0.118923
Interface Courant Number mean: 0.00130838 max: 0.109343
deltaT = 0.00416667
Time = 0.454167

PIMPLE: iteration 1
smoothSolver:  Solving for alpha.water, Initial residual = 0.00103165, Final residual = 1.99264e-09, No Iterations 2
Phase-1 volume fraction = 0.90125  Min(alpha.water) = -1.07577e-21  Max(alpha.water) = 1
MULES: Correcting alpha.water
MULES: Correcting alpha.water
Phase-1 volume fraction = 0.90125  Min(alpha.water) = -3.70449e-09  Max(alpha.water) = 1
DICPCG:  Solving for p_rgh, Initial residual = 0.0615207, Final residual = 0.00202783, No Iterations 3
time step continuity errors : sum local = 1.07729e-05, global = 9.59416e-11, cumulative = -1.87809e-08
DICPCG:  Solving for p_rgh, Initial residual = 0.0028971, Final residual = 0.000144436, No Iterations 28
time step continuity errors : sum local = 7.56518e-07, global = 4.79417e-10, cumulative = -1.83015e-08
DICPCG:  Solving for p_rgh, Initial residual = 0.00106789, Final residual = 9.24419e-08, No Iterations 162
time step continuity errors : sum local = 4.83815e-10, global = -1.21832e-12, cumulative = -1.83027e-08
ExecutionTime = 0.89 s  ClockTime = 1 s

Courant Number mean: 0.0231868 max: 0.100412
Interface Courant Number mean: 0.00112824 max: 0.0918527
deltaT = 0.00416667
Time = 0.458333

PIMPLE: iteration 1
smoothSolver:  Solving for alpha.water, Initial residual = 0.00104193, Final residual = 2.07364e-09, No Iterations 2
Phase-1 volume fraction = 0.90125  Min(alpha.water) = -9.96439e-22  Max(alpha.water) = 1
MULES: Correcting alpha.water
MULES: Correcting alpha.water
Phase-1 volume fraction = 0.90125  Min(alpha.water) = -3.99168e-09  Max(alpha.water) = 1
DICPCG:  Solving for p_rgh, Initial residual = 0.0627758, Final residual = 0.00227226, No Iterations 3
time step continuity errors : sum local = 1.215e-05, global = -1.51803e-10, cumulative = -1.84545e-08
DICPCG:  Solving for p_rgh, Initial residual = 0.00332647, Final residual = 0.000164418, No Iterations 17
time step continuity errors : sum local = 8.65795e-07, global = -2.10668e-10, cumulative = -1.86652e-08
DICPCG:  Solving for p_rgh, Initial residual = 0.0012029, Final residual = 9.13774e-08, No Iterations 175
time step continuity errors : sum local = 4.809e-10, global = 1.54994e-12, cumulative = -1.86636e-08
ExecutionTime = 0.9 s  ClockTime = 1 s

Courant Number mean: 0.0234318 max: 0.101757
Interface Courant Number mean: 0.00109387 max: 0.0925806
deltaT = 0.00416667
Time = 0.4625

PIMPLE: iteration 1
smoothSolver:  Solving for alpha.water, Initial residual = 0.00105193, Final residual = 2.15812e-09, No Iterations 2
Phase-1 volume fraction = 0.90125  Min(alpha.water) = -9.22244e-22  Max(alpha.water) = 1
MULES: Correcting alpha.water
MULES: Correcting alpha.water
Phase-1 volume fraction = 0.90125  Min(alpha.water) = -3.6106e-09  Max(alpha.water) = 1
DICPCG:  Solving for p_rgh, Initial residual = 0.0610394, Final residual = 0.00204099, No Iterations 3
time step continuity errors : sum local = 1.0991e-05, global = 8.37368e-11, cumulative = -1.85799e-08
DICPCG:  Solving for p_rgh, Initial residual = 0.00292199, Final residual = 0.000143292, No Iterations 28
time step continuity errors : sum local = 7.60762e-07, global = 3.18021e-10, cumulative = -1.82619e-08
DICPCG:  Solving for p_rgh, Initial residual = 0.00106715, Final residual = 8.9445e-08, No Iterations 161
time step continuity errors : sum local = 4.74515e-10, global = -1.02948e-12, cumulative = -1.82629e-08
ExecutionTime = 0.91 s  ClockTime = 1 s

Courant Number mean: 0.0236728 max: 0.103059
Interface Courant Number mean: 0.00107995 max: 0.0933383
deltaT = 0.00416667
Time = 0.466667

PIMPLE: iteration 1
smoothSolver:  Solving for alpha.water, Initial residual = 0.00106192, Final residual = 2.24249e-09, No Iterations 2
Phase-1 volume fraction = 0.90125  Min(alpha.water) = -8.52878e-22  Max(alpha.water) = 1
MULES: Correcting alpha.water
MULES: Correcting alpha.water
Phase-1 volume fraction = 0.90125  Min(alpha.water) = -3.91753e-09  Max(alpha.water) = 1
DICPCG:  Solving for p_rgh, Initial residual = 0.0626474, Final residual = 0.00226388, No Iterations 3
time step continuity errors : sum local = 1.21898e-05, global = -1.15066e-10, cumulative = -1.8378e-08
DICPCG:  Solving for p_rgh, Initial residual = 0.00332696, Final residual = 0.00013419, No Iterations 18
time step continuity errors : sum local = 7.09454e-07, global = -1.6473e-10, cumulative = -1.85427e-08
DICPCG:  Solving for p_rgh, Initial residual = 0.00118011, Final residual = 9.9018e-08, No Iterations 174
time step continuity errors : sum local = 5.23175e-10, global = 1.1641e-12, cumulative = -1.85415e-08
ExecutionTime = 0.92 s  ClockTime = 1 s

Courant Number mean: 0.0239139 max: 0.104366
Interface Courant Number mean: 0.00112529 max: 0.0941248
deltaT = 0.00416667
Time = 0.470833

PIMPLE: iteration 1
smoothSolver:  Solving for alpha.water, Initial residual = 0.0010717, Final residual = 2.32899e-09, No Iterations 2
Phase-1 volume fraction = 0.90125  Min(alpha.water) = -7.8814e-22  Max(alpha.water) = 1
MULES: Correcting alpha.water
MULES: Correcting alpha.water
Phase-1 volume fraction = 0.90125  Min(alpha.water) = -4.25185e-09  Max(alpha.water) = 1
DICPCG:  Solving for p_rgh, Initial residual = 0.0622404, Final residual = 0.00199982, No Iterations 3
time step continuity errors : sum local = 1.07099e-05, global = 7.56854e-11, cumulative = -1.84659e-08
DICPCG:  Solving for p_rgh, Initial residual = 0.00287169, Final residual = 0.000140497, No Iterations 28
time step continuity errors : sum local = 7.38966e-07, global = 3.0647e-10, cumulative = -1.81594e-08
DICPCG:  Solving for p_rgh, Initial residual = 0.00107019, Final residual = 8.88451e-08, No Iterations 170
time step continuity errors : sum local = 4.66898e-10, global = 9.94922e-13, cumulative = -1.81584e-08
ExecutionTime = 0.93 s  ClockTime = 1 s

Courant Number mean: 0.0241521 max: 0.105646
Interface Courant Number mean: 0.00113693 max: 0.0948838
deltaT = 0.00416667
Time = 0.475

PIMPLE: iteration 1
smoothSolver:  Solving for alpha.water, Initial residual = 0.00108136, Final residual = 2.41619e-09, No Iterations 2
Phase-1 volume fraction = 0.90125  Min(alpha.water) = -7.27726e-22  Max(alpha.water) = 1
MULES: Correcting alpha.water
MULES: Correcting alpha.water
Phase-1 volume fraction = 0.90125  Min(alpha.water) = -4.5999e-09  Max(alpha.water) = 1
DICPCG:  Solving for p_rgh, Initial residual = 0.0655296, Final residual = 0.00219146, No Iterations 3
time step continuity errors : sum local = 1.15922e-05, global = -1.10431e-10, cumulative = -1.82688e-08
DICPCG:  Solving for p_rgh, Initial residual = 0.0032464, Final residual = 0.000153532, No Iterations 17
time step continuity errors : sum local = 7.95153e-07, global = -1.54425e-10, cumulative = -1.84232e-08
DICPCG:  Solving for p_rgh, Initial residual = 0.00120028, Final residual = 9.64344e-08, No Iterations 174
time step continuity errors : sum local = 4.99157e-10, global = 1.44344e-12, cumulative = -1.84218e-08
ExecutionTime = 0.94 s  ClockTime = 1 s

Courant Number mean: 0.0243897 max: 0.106918
Interface Courant Number mean: 0.0011697 max: 0.0956373
deltaT = 0.00416667
Time = 0.479167

PIMPLE: iteration 1
smoothSolver:  Solving for alpha.water, Initial residual = 0.00109097, Final residual = 2.50509e-09, No Iterations 2
Phase-1 volume fraction = 0.90125  Min(alpha.water) = -6.7145e-22  Max(alpha.water) = 1
MULES: Correcting alpha.water
MULES: Correcting alpha.water
Phase-1 volume fraction = 0.90125  Min(alpha.water) = -4.97077e-09  Max(alpha.water) = 1
DICPCG:  Solving for p_rgh, Initial residual = 0.0658163, Final residual = 0.00212751, No Iterations 3
time step continuity errors : sum local = 1.1089e-05, global = 7.3487e-11, cumulative = -1.83483e-08
DICPCG:  Solving for p_rgh, Initial residual = 0.00307488, Final residual = 0.000149215, No Iterations 28
time step continuity errors : sum local = 7.62118e-07, global = 3.27036e-10, cumulative = -1.80213e-08
DICPCG:  Solving for p_rgh, Initial residual = 0.00115463, Final residual = 9.57717e-08, No Iterations 169
time step continuity errors : sum local = 4.88738e-10, global = 1.03946e-12, cumulative = -1.80202e-08
ExecutionTime = 0.96 s  ClockTime = 1 s

Courant Number mean: 0.0246249 max: 0.108175
Interface Courant Number mean: 0.00119428 max: 0.0964938
deltaT = 0.00416667
Time = 0.483333

PIMPLE: iteration 1
smoothSolver:  Solving for alpha.water, Initial residual = 0.00110031, Final residual = 2.59438e-09, No Iterations 2
Phase-1 volume fraction = 0.90125  Min(alpha.water) = -6.19035e-22  Max(alpha.water) = 1
MULES: Correcting alpha.water
MULES: Correcting alpha.water
Phase-1 volume fraction = 0.90125  Min(alpha.water) = -5.35941e-09  Max(alpha.water) = 1
DICPCG:  Solving for p_rgh, Initial residual = 0.0699036, Final residual = 0.00237008, No Iterations 3
time step continuity errors : sum local = 1.22373e-05, global = -1.16916e-10, cumulative = -1.81372e-08
DICPCG:  Solving for p_rgh, Initial residual = 0.00346872, Final residual = 0.000160909, No Iterations 17
time step continuity errors : sum local = 8.15111e-07, global = -1.61944e-10, cumulative = -1.82991e-08
DICPCG:  Solving for p_rgh, Initial residual = 0.00128893, Final residual = 9.77143e-08, No Iterations 174
time step continuity errors : sum local = 4.94676e-10, global = 1.47113e-12, cumulative = -1.82976e-08
ExecutionTime = 0.97 s  ClockTime = 1 s

Courant Number mean: 0.0248591 max: 0.109425
Interface Courant Number mean: 0.00122436 max: 0.0973402
deltaT = 0.00416667
Time = 0.4875

PIMPLE: iteration 1
smoothSolver:  Solving for alpha.water, Initial residual = 0.00110942, Final residual = 2.68523e-09, No Iterations 2
Phase-1 volume fraction = 0.90125  Min(alpha.water) = -5.70308e-22  Max(alpha.water) = 1
MULES: Correcting alpha.water
MULES: Correcting alpha.water
Phase-1 volume fraction = 0.90125  Min(alpha.water) = -5.7681e-09  Max(alpha.water) = 1
DICPCG:  Solving for p_rgh, Initial residual = 0.0691069, Final residual = 0.0022795, No Iterations 3
time step continuity errors : sum local = 1.17006e-05, global = 7.60614e-11, cumulative = -1.82216e-08
DICPCG:  Solving for p_rgh, Initial residual = 0.00330517, Final residual = 0.000151423, No Iterations 28
time step continuity errors : sum local = 7.6259e-07, global = 3.47109e-10, cumulative = -1.78745e-08
DICPCG:  Solving for p_rgh, Initial residual = 0.00123215, Final residual = 8.79158e-08, No Iterations 170
time step continuity errors : sum local = 4.4237e-10, global = 1.25466e-12, cumulative = -1.78732e-08
ExecutionTime = 0.99 s  ClockTime = 1 s

Courant Number mean: 0.0250914 max: 0.110658
Interface Courant Number mean: 0.00125981 max: 0.100788
deltaT = 0.00416667
Time = 0.491667

PIMPLE: iteration 1
smoothSolver:  Solving for alpha.water, Initial residual = 0.00111799, Final residual = 2.77673e-09, No Iterations 2
Phase-1 volume fraction = 0.90125  Min(alpha.water) = -5.25013e-22  Max(alpha.water) = 1
MULES: Correcting alpha.water
MULES: Correcting alpha.water
Phase-1 volume fraction = 0.90125  Min(alpha.water) = -6.19604e-09  Max(alpha.water) = 1
DICPCG:  Solving for p_rgh, Initial residual = 0.0723147, Final residual = 0.00247742, No Iterations 3
time step continuity errors : sum local = 1.2704e-05, global = -1.22289e-10, cumulative = -1.79955e-08
DICPCG:  Solving for p_rgh, Initial residual = 0.00363093, Final residual = 0.000178614, No Iterations 17
time step continuity errors : sum local = 8.97187e-07, global = -1.70707e-10, cumulative = -1.81662e-08
DICPCG:  Solving for p_rgh, Initial residual = 0.00135609, Final residual = 8.10939e-08, No Iterations 175
time step continuity errors : sum local = 4.07043e-10, global = 1.53064e-12, cumulative = -1.81647e-08
ExecutionTime = 1 s  ClockTime = 1 s

Courant Number mean: 0.0253226 max: 0.11188
Interface Courant Number mean: 0.0012232 max: 0.101593
deltaT = 0.00416667
Time = 0.495833

PIMPLE: iteration 1
smoothSolver:  Solving for alpha.water, Initial residual = 0.00112718, Final residual = 2.86997e-09, No Iterations 2
Phase-1 volume fraction = 0.90125  Min(alpha.water) = -4.82984e-22  Max(alpha.water) = 1
MULES: Correcting alpha.water
MULES: Correcting alpha.water
Phase-1 volume fraction = 0.90125  Min(alpha.water) = -6.63934e-09  Max(alpha.water) = 1
DICPCG:  Solving for p_rgh, Initial residual = 0.0706432, Final residual = 0.00237358, No Iterations 3
time step continuity errors : sum local = 1.21831e-05, global = 7.83498e-11, cumulative = -1.80863e-08
DICPCG:  Solving for p_rgh, Initial residual = 0.00350061, Final residual = 0.000152845, No Iterations 28
time step continuity errors : sum local = 7.69987e-07, global = 3.59651e-10, cumulative = -1.77267e-08
DICPCG:  Solving for p_rgh, Initial residual = 0.0012886, Final residual = 9.15469e-08, No Iterations 170
time step continuity errors : sum local = 4.6075e-10, global = 1.05165e-12, cumulative = -1.77256e-08
ExecutionTime = 1.01 s  ClockTime = 1 s

Courant Number mean: 0.0255524 max: 0.11309
Interface Courant Number mean: 0.00121475 max: 0.102349
deltaT = 0.00416667
Time = 0.5

PIMPLE: iteration 1
smoothSolver:  Solving for alpha.water, Initial residual = 0.00113621, Final residual = 2.965e-09, No Iterations 2
Phase-1 volume fraction = 0.90125  Min(alpha.water) = -4.43984e-22  Max(alpha.water) = 1
MULES: Correcting alpha.water
MULES: Correcting alpha.water
Phase-1 volume fraction = 0.90125  Min(alpha.water) = -7.10335e-09  Max(alpha.water) = 1
DICPCG:  Solving for p_rgh, Initial residual = 0.072041, Final residual = 0.00240456, No Iterations 3
time step continuity errors : sum local = 1.23078e-05, global = -1.25912e-10, cumulative = -1.78515e-08
DICPCG:  Solving for p_rgh, Initial residual = 0.00354541, Final residual = 0.000142578, No Iterations 18
time step continuity errors : sum local = 7.16415e-07, global = -1.8901e-10, cumulative = -1.80405e-08
DICPCG:  Solving for p_rgh, Initial residual = 0.00134312, Final residual = 9.91302e-08, No Iterations 174
time step continuity errors : sum local = 4.9768e-10, global = 1.49791e-12, cumulative = -1.8039e-08
ExecutionTime = 1.03 s  ClockTime = 1 s

Courant Number mean: 0.0257808 max: 0.114289
Interface Courant Number mean: 0.00121216 max: 0.103129
deltaT = 0.00357143
Time = 0.503571

PIMPLE: iteration 1
smoothSolver:  Solving for alpha.water, Initial residual = 0.000982242, Final residual = 1.77089e-09, No Iterations 2
Phase-1 volume fraction = 0.90125  Min(alpha.water) = -4.12658e-22  Max(alpha.water) = 1
MULES: Correcting alpha.water
MULES: Correcting alpha.water
Phase-1 volume fraction = 0.90125  Min(alpha.water) = -4.83135e-09  Max(alpha.water) = 1
DICPCG:  Solving for p_rgh, Initial residual = 0.0634703, Final residual = 0.00187914, No Iterations 3
time step continuity errors : sum local = 8.06435e-06, global = 6.06647e-11, cumulative = -1.79784e-08
DICPCG:  Solving for p_rgh, Initial residual = 0.00278131, Final residual = 0.000127765, No Iterations 28
time step continuity errors : sum local = 5.39696e-07, global = 2.62642e-10, cumulative = -1.77157e-08
DICPCG:  Solving for p_rgh, Initial residual = 0.00102643, Final residual = 9.26265e-08, No Iterations 169
time step continuity errors : sum local = 3.90947e-10, global = 8.15159e-13, cumulative = -1.77149e-08
ExecutionTime = 1.05 s  ClockTime = 1 s

Courant Number mean: 0.0222686 max: 0.098891
Interface Courant Number mean: 0.0010489 max: 0.0903824
deltaT = 0.00357143
Time = 0.507143

PIMPLE: iteration 1
smoothSolver:  Solving for alpha.water, Initial residual = 0.000989826, Final residual = 1.81979e-09, No Iterations 2
Phase-1 volume fraction = 0.90125  Min(alpha.water) = -3.83321e-22  Max(alpha.water) = 1
MULES: Correcting alpha.water
MULES: Correcting alpha.water
Phase-1 volume fraction = 0.90125  Min(alpha.water) = -4.36077e-09  Max(alpha.water) = 1
DICPCG:  Solving for p_rgh, Initial residual = 0.0649687, Final residual = 0.00206234, No Iterations 3
time step continuity errors : sum local = 8.79296e-06, global = -8.43344e-11, cumulative = -1.77992e-08
DICPCG:  Solving for p_rgh, Initial residual = 0.00302946, Final residual = 0.000145242, No Iterations 17
time step continuity errors : sum local = 6.09258e-07, global = -1.02641e-10, cumulative = -1.79019e-08
DICPCG:  Solving for p_rgh, Initial residual = 0.00114643, Final residual = 9.57864e-08, No Iterations 174
time step continuity errors : sum local = 4.01549e-10, global = 1.08116e-12, cumulative = -1.79008e-08
ExecutionTime = 1.06 s  ClockTime = 1 s

Courant Number mean: 0.022441 max: 0.0998407
Interface Courant Number mean: 0.00106531 max: 0.0909795
deltaT = 0.00357143
Time = 0.510714

PIMPLE: iteration 1
[...]
Interface Courant Number mean: 0.00121552 max: 0.0709134
deltaT = 0.00208333
Time = 2.96667

PIMPLE: iteration 1
smoothSolver:  Solving for alpha.water, Initial residual = 0.000974323, Final residual = 8.81776e-10, No Iterations 2
Phase-1 volume fraction = 0.90125  Min(alpha.water) = 4.24784e-13  Max(alpha.water) = 1
MULES: Correcting alpha.water
MULES: Correcting alpha.water
Phase-1 volume fraction = 0.90125  Min(alpha.water) = 2.87718e-13  Max(alpha.water) = 1
DICPCG:  Solving for p_rgh, Initial residual = 0.301884, Final residual = 0.0122069, No Iterations 2
time step continuity errors : sum local = 9.25131e-05, global = 2.9518e-09, cumulative = -1.04115e-07
DICPCG:  Solving for p_rgh, Initial residual = 0.0166663, Final residual = 0.000722054, No Iterations 13
time step continuity errors : sum local = 5.43262e-06, global = 4.75699e-09, cumulative = -9.93581e-08
DICPCG:  Solving for p_rgh, Initial residual = 0.00543021, Final residual = 9.79695e-08, No Iterations 190
time step continuity errors : sum local = 7.38072e-10, global = 3.64515e-12, cumulative = -9.93544e-08
ExecutionTime = 17.13 s  ClockTime = 17 s

Courant Number mean: 0.0301751 max: 0.101625
Interface Courant Number mean: 0.00121029 max: 0.0708797
deltaT = 0.00208333
Time = 2.96875

PIMPLE: iteration 1
smoothSolver:  Solving for alpha.water, Initial residual = 0.000967233, Final residual = 9.35982e-10, No Iterations 2
Phase-1 volume fraction = 0.90125  Min(alpha.water) = 4.25229e-13  Max(alpha.water) = 1
MULES: Correcting alpha.water
MULES: Correcting alpha.water
Phase-1 volume fraction = 0.90125  Min(alpha.water) = -2.10354e-12  Max(alpha.water) = 1
DICPCG:  Solving for p_rgh, Initial residual = 0.302343, Final residual = 0.0132443, No Iterations 2
time step continuity errors : sum local = 9.90665e-05, global = 1.38846e-09, cumulative = -9.7966e-08
DICPCG:  Solving for p_rgh, Initial residual = 0.0177694, Final residual = 0.000768349, No Iterations 16
time step continuity errors : sum local = 5.69051e-06, global = 5.06277e-10, cumulative = -9.74597e-08
DICPCG:  Solving for p_rgh, Initial residual = 0.00575333, Final residual = 8.52163e-08, No Iterations 196
time step continuity errors : sum local = 6.32241e-10, global = -5.20467e-13, cumulative = -9.74602e-08
ExecutionTime = 17.14 s  ClockTime = 17 s

Courant Number mean: 0.030172 max: 0.102973
Interface Courant Number mean: 0.00122111 max: 0.0708469
deltaT = 0.00208333
Time = 2.97083

PIMPLE: iteration 1
smoothSolver:  Solving for alpha.water, Initial residual = 0.000966736, Final residual = 9.58411e-10, No Iterations 2
Phase-1 volume fraction = 0.90125  Min(alpha.water) = 4.25734e-13  Max(alpha.water) = 1
MULES: Correcting alpha.water
MULES: Correcting alpha.water
Phase-1 volume fraction = 0.90125  Min(alpha.water) = 2.24352e-13  Max(alpha.water) = 1
DICPCG:  Solving for p_rgh, Initial residual = 0.30816, Final residual = 0.0131406, No Iterations 2
time step continuity errors : sum local = 9.76474e-05, global = -1.66412e-09, cumulative = -9.91243e-08
DICPCG:  Solving for p_rgh, Initial residual = 0.0173283, Final residual = 0.000797378, No Iterations 18
time step continuity errors : sum local = 5.89097e-06, global = -8.53117e-10, cumulative = -9.99775e-08
DICPCG:  Solving for p_rgh, Initial residual = 0.00559121, Final residual = 9.89853e-08, No Iterations 201
time step continuity errors : sum local = 7.31145e-10, global = -3.14309e-12, cumulative = -9.99806e-08
ExecutionTime = 17.16 s  ClockTime = 17 s

Courant Number mean: 0.0301726 max: 0.102656
Interface Courant Number mean: 0.00123122 max: 0.0708091
deltaT = 0.00208333
Time = 2.97292

PIMPLE: iteration 1
smoothSolver:  Solving for alpha.water, Initial residual = 0.000972768, Final residual = 9.85505e-10, No Iterations 2
Phase-1 volume fraction = 0.90125  Min(alpha.water) = 4.26303e-13  Max(alpha.water) = 1
MULES: Correcting alpha.water
MULES: Correcting alpha.water
Phase-1 volume fraction = 0.90125  Min(alpha.water) = 2.28472e-13  Max(alpha.water) = 1
DICPCG:  Solving for p_rgh, Initial residual = 0.307227, Final residual = 0.0146541, No Iterations 2
time step continuity errors : sum local = 0.000108028, global = 1.74863e-09, cumulative = -9.8232e-08
DICPCG:  Solving for p_rgh, Initial residual = 0.0187829, Final residual = 0.000828932, No Iterations 18
time step continuity errors : sum local = 6.06644e-06, global = 5.5546e-10, cumulative = -9.76765e-08
DICPCG:  Solving for p_rgh, Initial residual = 0.005801, Final residual = 9.77671e-08, No Iterations 198
time step continuity errors : sum local = 7.16428e-10, global = 1.3496e-12, cumulative = -9.76752e-08
ExecutionTime = 17.17 s  ClockTime = 17 s

Courant Number mean: 0.0301827 max: 0.103055
Interface Courant Number mean: 0.00122642 max: 0.0707532
deltaT = 0.00208333
Time = 2.975

PIMPLE: iteration 1
smoothSolver:  Solving for alpha.water, Initial residual = 0.0009735, Final residual = 1.0287e-09, No Iterations 2
Phase-1 volume fraction = 0.90125  Min(alpha.water) = 4.2694e-13  Max(alpha.water) = 1
MULES: Correcting alpha.water
MULES: Correcting alpha.water
Phase-1 volume fraction = 0.90125  Min(alpha.water) = -3.49223e-13  Max(alpha.water) = 1
DICPCG:  Solving for p_rgh, Initial residual = 0.308737, Final residual = 0.00961055, No Iterations 3
time step continuity errors : sum local = 7.11101e-05, global = -1.96986e-09, cumulative = -9.9645e-08
DICPCG:  Solving for p_rgh, Initial residual = 0.0117727, Final residual = 0.000577925, No Iterations 45
time step continuity errors : sum local = 4.25765e-06, global = 1.88126e-08, cumulative = -8.08324e-08
DICPCG:  Solving for p_rgh, Initial residual = 0.00339824, Final residual = 9.99816e-08, No Iterations 201
time step continuity errors : sum local = 7.34428e-10, global = -3.12709e-12, cumulative = -8.08356e-08
ExecutionTime = 17.18 s  ClockTime = 17 s

Courant Number mean: 0.0301873 max: 0.101148
Interface Courant Number mean: 0.00122638 max: 0.0707233
deltaT = 0.00208333
Time = 2.97708

PIMPLE: iteration 1
smoothSolver:  Solving for alpha.water, Initial residual = 0.00097473, Final residual = 1.05421e-09, No Iterations 2
Phase-1 volume fraction = 0.90125  Min(alpha.water) = 4.27652e-13  Max(alpha.water) = 1
MULES: Correcting alpha.water
MULES: Correcting alpha.water
Phase-1 volume fraction = 0.90125  Min(alpha.water) = -8.08305e-11  Max(alpha.water) = 1
DICPCG:  Solving for p_rgh, Initial residual = 0.310792, Final residual = 0.00995612, No Iterations 3
time step continuity errors : sum local = 7.33483e-05, global = -1.317e-09, cumulative = -8.21526e-08
DICPCG:  Solving for p_rgh, Initial residual = 0.0121047, Final residual = 0.000549254, No Iterations 19
time step continuity errors : sum local = 4.02261e-06, global = -8.33365e-10, cumulative = -8.29859e-08
DICPCG:  Solving for p_rgh, Initial residual = 0.0033856, Final residual = 9.82186e-08, No Iterations 124
time step continuity errors : sum local = 7.18956e-10, global = 1.657e-10, cumulative = -8.28202e-08
ExecutionTime = 17.19 s  ClockTime = 17 s

Courant Number mean: 0.0301827 max: 0.102873
Interface Courant Number mean: 0.0012196 max: 0.0706803
deltaT = 0.00208333
Time = 2.97917

PIMPLE: iteration 1
smoothSolver:  Solving for alpha.water, Initial residual = 0.000973157, Final residual = 1.11351e-09, No Iterations 2
Phase-1 volume fraction = 0.90125  Min(alpha.water) = 4.28442e-13  Max(alpha.water) = 1
MULES: Correcting alpha.water
MULES: Correcting alpha.water
Phase-1 volume fraction = 0.90125  Min(alpha.water) = -7.66395e-12  Max(alpha.water) = 1
DICPCG:  Solving for p_rgh, Initial residual = 0.314941, Final residual = 0.0141317, No Iterations 2
time step continuity errors : sum local = 0.000104175, global = -1.4168e-09, cumulative = -8.4237e-08
DICPCG:  Solving for p_rgh, Initial residual = 0.0182645, Final residual = 0.000898086, No Iterations 14
time step continuity errors : sum local = 6.59272e-06, global = -3.16509e-10, cumulative = -8.45535e-08
DICPCG:  Solving for p_rgh, Initial residual = 0.00546674, Final residual = 8.75318e-08, No Iterations 202
time step continuity errors : sum local = 6.42244e-10, global = 1.06643e-12, cumulative = -8.45525e-08
ExecutionTime = 17.2 s  ClockTime = 17 s

Courant Number mean: 0.0301857 max: 0.1012
Interface Courant Number mean: 0.00124276 max: 0.0706332
deltaT = 0.00208333
Time = 2.98125

PIMPLE: iteration 1
smoothSolver:  Solving for alpha.water, Initial residual = 0.000974623, Final residual = 1.11909e-09, No Iterations 2
Phase-1 volume fraction = 0.90125  Min(alpha.water) = 4.29315e-13  Max(alpha.water) = 1
MULES: Correcting alpha.water
MULES: Correcting alpha.water
Phase-1 volume fraction = 0.90125  Min(alpha.water) = -5.69239e-12  Max(alpha.water) = 1
DICPCG:  Solving for p_rgh, Initial residual = 0.317871, Final residual = 0.0141598, No Iterations 2
time step continuity errors : sum local = 0.000104171, global = 1.26645e-09, cumulative = -8.3286e-08
DICPCG:  Solving for p_rgh, Initial residual = 0.0187612, Final residual = 0.000798394, No Iterations 18
time step continuity errors : sum local = 5.82016e-06, global = 6.5133e-11, cumulative = -8.32209e-08
DICPCG:  Solving for p_rgh, Initial residual = 0.00604907, Final residual = 9.55026e-08, No Iterations 205
time step continuity errors : sum local = 6.97633e-10, global = 6.30669e-13, cumulative = -8.32203e-08
ExecutionTime = 17.22 s  ClockTime = 17 s

Courant Number mean: 0.030193 max: 0.102653
Interface Courant Number mean: 0.00123285 max: 0.0705866
deltaT = 0.00208333
Time = 2.98333

PIMPLE: iteration 1
smoothSolver:  Solving for alpha.water, Initial residual = 0.000983706, Final residual = 1.16481e-09, No Iterations 2
Phase-1 volume fraction = 0.90125  Min(alpha.water) = 4.29961e-13  Max(alpha.water) = 1
MULES: Correcting alpha.water
MULES: Correcting alpha.water
Phase-1 volume fraction = 0.90125  Min(alpha.water) = -5.77514e-12  Max(alpha.water) = 1
DICPCG:  Solving for p_rgh, Initial residual = 0.318224, Final residual = 0.0135949, No Iterations 2
time step continuity errors : sum local = 9.98105e-05, global = -1.30699e-09, cumulative = -8.45272e-08
DICPCG:  Solving for p_rgh, Initial residual = 0.0179255, Final residual = 0.000814388, No Iterations 18
time step continuity errors : sum local = 5.9361e-06, global = 2.33404e-10, cumulative = -8.42938e-08
DICPCG:  Solving for p_rgh, Initial residual = 0.00570516, Final residual = 9.55705e-08, No Iterations 195
time step continuity errors : sum local = 6.96713e-10, global = 7.74085e-13, cumulative = -8.42931e-08
ExecutionTime = 17.23 s  ClockTime = 17 s

Courant Number mean: 0.0301878 max: 0.101625
Interface Courant Number mean: 0.00123075 max: 0.0705385
deltaT = 0.00208333
Time = 2.98542

PIMPLE: iteration 1
smoothSolver:  Solving for alpha.water, Initial residual = 0.000973421, Final residual = 1.1995e-09, No Iterations 2
Phase-1 volume fraction = 0.90125  Min(alpha.water) = 4.3066e-13  Max(alpha.water) = 1
MULES: Correcting alpha.water
MULES: Correcting alpha.water
Phase-1 volume fraction = 0.90125  Min(alpha.water) = -4.40656e-12  Max(alpha.water) = 1
DICPCG:  Solving for p_rgh, Initial residual = 0.312181, Final residual = 0.0140059, No Iterations 2
time step continuity errors : sum local = 0.000101589, global = 1.32867e-09, cumulative = -8.29644e-08
DICPCG:  Solving for p_rgh, Initial residual = 0.0186701, Final residual = 0.000862374, No Iterations 44
time step continuity errors : sum local = 6.18075e-06, global = -2.48107e-08, cumulative = -1.07775e-07
DICPCG:  Solving for p_rgh, Initial residual = 0.00588811, Final residual = 9.10755e-08, No Iterations 199
time step continuity errors : sum local = 6.56332e-10, global = -2.39939e-12, cumulative = -1.07777e-07
ExecutionTime = 17.24 s  ClockTime = 17 s

Courant Number mean: 0.0301788 max: 0.102195
Interface Courant Number mean: 0.00122967 max: 0.0704972
deltaT = 0.00208333
Time = 2.9875

PIMPLE: iteration 1
smoothSolver:  Solving for alpha.water, Initial residual = 0.000969443, Final residual = 1.21991e-09, No Iterations 2
Phase-1 volume fraction = 0.90125  Min(alpha.water) = 4.31424e-13  Max(alpha.water) = 1
MULES: Correcting alpha.water
MULES: Correcting alpha.water
Phase-1 volume fraction = 0.90125  Min(alpha.water) = -4.42998e-12  Max(alpha.water) = 1
DICPCG:  Solving for p_rgh, Initial residual = 0.315935, Final residual = 0.0141596, No Iterations 2
time step continuity errors : sum local = 0.000103155, global = 2.2913e-09, cumulative = -1.05486e-07
DICPCG:  Solving for p_rgh, Initial residual = 0.017922, Final residual = 0.000887821, No Iterations 32
time step continuity errors : sum local = 6.49591e-06, global = 7.20685e-09, cumulative = -9.82793e-08
DICPCG:  Solving for p_rgh, Initial residual = 0.0057407, Final residual = 9.93315e-08, No Iterations 194
time step continuity errors : sum local = 7.25692e-10, global = 1.03885e-13, cumulative = -9.82792e-08
ExecutionTime = 17.26 s  ClockTime = 17 s

Courant Number mean: 0.0302011 max: 0.1016
Interface Courant Number mean: 0.0012397 max: 0.0704425
deltaT = 0.00208333
Time = 2.98958

PIMPLE: iteration 1
smoothSolver:  Solving for alpha.water, Initial residual = 0.000971409, Final residual = 1.27239e-09, No Iterations 2
Phase-1 volume fraction = 0.90125  Min(alpha.water) = 4.32251e-13  Max(alpha.water) = 1
MULES: Correcting alpha.water
MULES: Correcting alpha.water
Phase-1 volume fraction = 0.90125  Min(alpha.water) = -3.73633e-12  Max(alpha.water) = 1
DICPCG:  Solving for p_rgh, Initial residual = 0.318974, Final residual = 0.0154577, No Iterations 2
time step continuity errors : sum local = 0.000113609, global = 4.53487e-10, cumulative = -9.78257e-08
DICPCG:  Solving for p_rgh, Initial residual = 0.0195237, Final residual = 0.00091866, No Iterations 14
time step continuity errors : sum local = 6.71138e-06, global = -2.09234e-09, cumulative = -9.9918e-08
DICPCG:  Solving for p_rgh, Initial residual = 0.0058029, Final residual = 7.51073e-08, No Iterations 203
time step continuity errors : sum local = 5.48861e-10, global = -2.99584e-12, cumulative = -9.9921e-08
ExecutionTime = 17.27 s  ClockTime = 17 s

Courant Number mean: 0.0302028 max: 0.102755
Interface Courant Number mean: 0.00125656 max: 0.0710579
deltaT = 0.00208333
Time = 2.99167

PIMPLE: iteration 1
smoothSolver:  Solving for alpha.water, Initial residual = 0.000972091, Final residual = 1.29623e-09, No Iterations 2
Phase-1 volume fraction = 0.90125  Min(alpha.water) = 4.33151e-13  Max(alpha.water) = 1
MULES: Correcting alpha.water
MULES: Correcting alpha.water
Phase-1 volume fraction = 0.90125  Min(alpha.water) = -3.93225e-12  Max(alpha.water) = 1
DICPCG:  Solving for p_rgh, Initial residual = 0.316455, Final residual = 0.00916393, No Iterations 3
time step continuity errors : sum local = 6.73064e-05, global = -9.83205e-10, cumulative = -1.00904e-07
DICPCG:  Solving for p_rgh, Initial residual = 0.0112626, Final residual = 0.000544006, No Iterations 19
time step continuity errors : sum local = 3.97318e-06, global = 1.54089e-10, cumulative = -1.0075e-07
DICPCG:  Solving for p_rgh, Initial residual = 0.00319159, Final residual = 9.42855e-08, No Iterations 201
time step continuity errors : sum local = 6.87924e-10, global = -6.73496e-13, cumulative = -1.00751e-07
ExecutionTime = 17.28 s  ClockTime = 17 s

Courant Number mean: 0.0301965 max: 0.0992488
Interface Courant Number mean: 0.00126354 max: 0.071067
deltaT = 0.00208333
Time = 2.99375

PIMPLE: iteration 1
smoothSolver:  Solving for alpha.water, Initial residual = 0.000976222, Final residual = 1.32755e-09, No Iterations 2
Phase-1 volume fraction = 0.90125  Min(alpha.water) = 4.34123e-13  Max(alpha.water) = 1
MULES: Correcting alpha.water
MULES: Correcting alpha.water
Phase-1 volume fraction = 0.90125  Min(alpha.water) = -4.34155e-12  Max(alpha.water) = 1
DICPCG:  Solving for p_rgh, Initial residual = 0.312249, Final residual = 0.0152072, No Iterations 2
time step continuity errors : sum local = 0.000112572, global = 1.23602e-09, cumulative = -9.95148e-08
DICPCG:  Solving for p_rgh, Initial residual = 0.0194626, Final residual = 0.000941658, No Iterations 14
time step continuity errors : sum local = 6.93523e-06, global = 4.03205e-11, cumulative = -9.94745e-08
DICPCG:  Solving for p_rgh, Initial residual = 0.00571099, Final residual = 9.52828e-08, No Iterations 130
time step continuity errors : sum local = 7.01884e-10, global = 7.94885e-11, cumulative = -9.9395e-08
ExecutionTime = 17.29 s  ClockTime = 17 s

Courant Number mean: 0.0301948 max: 0.101164
Interface Courant Number mean: 0.00125895 max: 0.0710457
deltaT = 0.00208333
Time = 2.99583

PIMPLE: iteration 1
smoothSolver:  Solving for alpha.water, Initial residual = 0.000981027, Final residual = 1.35736e-09, No Iterations 2
Phase-1 volume fraction = 0.90125  Min(alpha.water) = 4.35177e-13  Max(alpha.water) = 1
MULES: Correcting alpha.water
MULES: Correcting alpha.water
Phase-1 volume fraction = 0.90125  Min(alpha.water) = -6.67385e-12  Max(alpha.water) = 1
DICPCG:  Solving for p_rgh, Initial residual = 0.311485, Final residual = 0.0131224, No Iterations 2
time step continuity errors : sum local = 9.70304e-05, global = -1.17086e-09, cumulative = -1.00566e-07
DICPCG:  Solving for p_rgh, Initial residual = 0.0176417, Final residual = 0.000794321, No Iterations 17
time step continuity errors : sum local = 5.8267e-06, global = 2.15341e-11, cumulative = -1.00544e-07
DICPCG:  Solving for p_rgh, Initial residual = 0.00554279, Final residual = 9.12797e-08, No Iterations 187
time step continuity errors : sum local = 6.70037e-10, global = -9.58071e-12, cumulative = -1.00554e-07
ExecutionTime = 17.3 s  ClockTime = 17 s

Courant Number mean: 0.0301984 max: 0.101714
Interface Courant Number mean: 0.00124452 max: 0.0710242
deltaT = 0.00208333
Time = 2.99792

PIMPLE: iteration 1
smoothSolver:  Solving for alpha.water, Initial residual = 0.000971301, Final residual = 1.36973e-09, No Iterations 2
Phase-1 volume fraction = 0.90125  Min(alpha.water) = 4.3631e-13  Max(alpha.water) = 1
MULES: Correcting alpha.water
MULES: Correcting alpha.water
Phase-1 volume fraction = 0.90125  Min(alpha.water) = -3.11049e-11  Max(alpha.water) = 1
DICPCG:  Solving for p_rgh, Initial residual = 0.308184, Final residual = 0.0128866, No Iterations 2
time step continuity errors : sum local = 9.61637e-05, global = 1.14578e-09, cumulative = -9.94081e-08
DICPCG:  Solving for p_rgh, Initial residual = 0.0176266, Final residual = 0.000703252, No Iterations 17
time step continuity errors : sum local = 5.23014e-06, global = -2.69041e-10, cumulative = -9.96772e-08
DICPCG:  Solving for p_rgh, Initial residual = 0.00581507, Final residual = 8.13198e-08, No Iterations 200
time step continuity errors : sum local = 6.05978e-10, global = -2.38153e-12, cumulative = -9.96795e-08
ExecutionTime = 17.32 s  ClockTime = 17 s

Courant Number mean: 0.0301983 max: 0.101088
Interface Courant Number mean: 0.0012356 max: 0.0710099
deltaT = 0.00208333
Time = 3

PIMPLE: iteration 1
smoothSolver:  Solving for alpha.water, Initial residual = 0.00097162, Final residual = 1.40566e-09, No Iterations 2
Phase-1 volume fraction = 0.90125  Min(alpha.water) = 4.37535e-13  Max(alpha.water) = 1
MULES: Correcting alpha.water
MULES: Correcting alpha.water
Phase-1 volume fraction = 0.90125  Min(alpha.water) = -2.76096e-10  Max(alpha.water) = 1
DICPCG:  Solving for p_rgh, Initial residual = 0.3054, Final residual = 0.0128681, No Iterations 2
time step continuity errors : sum local = 9.67322e-05, global = -1.11371e-09, cumulative = -1.00793e-07
DICPCG:  Solving for p_rgh, Initial residual = 0.017394, Final residual = 0.000763082, No Iterations 17
time step continuity errors : sum local = 5.70868e-06, global = 2.58657e-10, cumulative = -1.00535e-07
DICPCG:  Solving for p_rgh, Initial residual = 0.00547677, Final residual = 9.44709e-08, No Iterations 194
time step continuity errors : sum local = 7.07352e-10, global = 2.67281e-12, cumulative = -1.00532e-07
ExecutionTime = 17.33 s  ClockTime = 17 s

End

Finalising parallel run
