/*---------------------------------------------------------------------------*\
| =========                 |                                                 |
| \\      /  F ield         | OpenFOAM: The Open Source CFD Toolbox           |
|  \\    /   O peration     | Version:  2412                                  |
|   \\  /    A nd           | Website:  www.openfoam.com                      |
|    \\/     M anipulation  |                                                 |
\*---------------------------------------------------------------------------*/
Build  : _8dbc61e11c-20241220 OPENFOAM=2412 version=v2412
Arch   : "LSB;label=32;scalar=64"
Exec   : blockMesh
Date   : May 30 2025
Time   : 09:19:50
Host   : WORKHORSE
PID    : 3661495
I/O    : uncollated
Case   : /home/adrian/OpenFOAM/adrian-v2412/run/bubble/mesh_160_Co_0.01
nProcs : 1
trapFpe: Floating point exception trapping enabled (FOAM_SIGFPE).
fileModificationChecking : Monitoring run-time modified files using timeStampMaster (fileModificationSkew 5, maxFileModificationPolls 20)
allowSystemOperations : Allowing user-supplied system call operations

// * * * * * * * * * * * * * * * * * * * * * * * * * * * * * * * * * * * * * //
Create time

Creating block mesh from "system/blockMeshDict"
Creating block edges
No non-planar block faces defined
Creating topology blocks

Creating topology patches - from boundary section

Creating block mesh topology

Check topology

	Basic statistics
		Number of internal faces : 0
		Number of boundary faces : 6
		Number of defined boundary faces : 6
		Number of undefined boundary faces : 0
	Checking patch -> block consistency

Creating block offsets
Creating merge list (topological search)...
Deleting polyMesh directory "constant/polyMesh"

Creating polyMesh from blockMesh
Creating patches
Creating cells
Creating points with scale (1 1 1)
    Block 0 cell size :
        i : 0.00625 .. 0.00625
        j : 0.00625 .. 0.00625
        k : 0.1 .. 0.1

No patch pairs to merge

Writing polyMesh with 0 cellZones
----------------
Mesh Information
----------------
  boundingBox: (0 0 0) (1 2 0.1)
  nPoints: 103362
  nCells: 51200
  nFaces: 205280
  nInternalFaces: 101920
----------------
Patches
----------------
  patch 0 (start: 101920 size: 320) name: leftWall
  patch 1 (start: 102240 size: 320) name: rightWall
  patch 2 (start: 102560 size: 160) name: upperWall
  patch 3 (start: 102720 size: 160) name: lowerWall
  patch 4 (start: 102880 size: 102400) name: frontAndBack

End

